1

   Abaqus 6.13-1                                  Date 19-févr.-2018   Time 21:08:54
   For use at  under license from Dassault Systemes or its subsidiary.



                         The Abaqus Software is a product of:

                           Dassault Systemes Simulia Corp.
                                 Rising Sun Mills
                                 166 Valley Street
                           Providence, RI 02909-2499, USA
 


                   Available for internal use at . 
                   The Abaqus Online Support System is accessible
                   through the "My Support" section of the SIMULIA
                   Home Page at http://www.simulia.com.

                   Support policies for academic licenses are described
                   on the SIMULIA web site at
                   http://www.3ds.com/products/simulia/academics/
 
                          On machine lcharleux-HP 
                          you are authorized to run
                          Abaqus/Standard until 25-Feb-2018

                          Your site id is: 200000000053092 


 
                    For assistance or any other information you may
                    obtain contact information for your local office
                    from the world wide web at:

                      http://www.3ds.com/products/simulia/locations/

 
                * * * * * * * * * * * * * * * * * * * * * * * * * * * * * * 
                *                                                         * 
                *                   *****************                     * 
                *                   *  N O T I C E  *                     * 
                *                   *****************                     * 
                *                                                         * 
                *                                                         * 
                *                    Abaqus 6.13-1                        * 
                *                                                         * 
                *          BUILD ID: 2013_05_16-01.56.28 126354           * 
                *                                                         * 
                *                                                         * 
                *  Please make sure you are using release 6.13 manuals    * 
                *  plus the notes accompanying this release.              * 
                *                                                         * 
                *                                                         * 
                *                                                         * 
                *                                                         * 
                *                                                         * 
                *   This program may not be used for commercial purposes  * 
                *           without payment of a commercial fee.          * 
                *                                                         * 
                * * * * * * * * * * * * * * * * * * * * * * * * * * * * * * 


 



     PROCESSING PART, INSTANCE, AND ASSEMBLY INFORMATION
   *******************************************************


     END PROCESSING PART, INSTANCE, AND ASSEMBLY INFORMATION
   ***********************************************************




     OPTIONS BEING PROCESSED
   ***************************


  *Node
  *Element, type=C3D8
  *Nset, nset=ASSEMBLY_ISAMPLE_ALL
  *Nset, nset=ASSEMBLY_ISAMPLE_BACK
  *Nset, nset=ASSEMBLY_ISAMPLE_BOTTOM
  *Nset, nset=ASSEMBLY_ISAMPLE_CONTROL
  *Nset, nset=ASSEMBLY_ISAMPLE_FRONT
  *Nset, nset=ASSEMBLY_ISAMPLE_LEFT
  *Nset, nset=ASSEMBLY_ISAMPLE_NONTRANSFORMED-1
  *Nset, nset=ASSEMBLY_ISAMPLE_NONTRANSFORMED-3
  *Nset, nset=ASSEMBLY_ISAMPLE_NONTRANSFORMED-5
  *Nset, nset=ASSEMBLY_ISAMPLE_NONTRANSFORMED-7
  *Nset, nset=ASSEMBLY_ISAMPLE_PINNED
  *Nset, nset=ASSEMBLY_ISAMPLE_RIGHT
  *Nset, nset=ASSEMBLY_ISAMPLE_TOP
  *Nset, nset=ASSEMBLY_ISAMPLE_UBACK, unsorted
  *Nset, nset=ASSEMBLY_ISAMPLE_UBOTTOM, unsorted
  *Nset, nset=ASSEMBLY_ISAMPLE_UFRONT, unsorted
  *Nset, nset=ASSEMBLY_ISAMPLE_ULEFT, unsorted
  *Nset, nset=ASSEMBLY_ISAMPLE_URIGHT, unsorted
  *Nset, nset=ASSEMBLY_ISAMPLE_UTOP, unsorted
  *Elset, elset=ASSEMBLY_ISAMPLE_ALL
  *Elset, elset=ASSEMBLY_ISAMPLE__MAT_MAT1
  *Elset, elset=ASSEMBLY_ISAMPLE__MAT_MAT10
  *Elset, elset=ASSEMBLY_ISAMPLE__MAT_MAT100
  *Elset, elset=ASSEMBLY_ISAMPLE__MAT_MAT1000
  *Elset, elset=ASSEMBLY_ISAMPLE__MAT_MAT101
  *Elset, elset=ASSEMBLY_ISAMPLE__MAT_MAT102
  *Elset, elset=ASSEMBLY_ISAMPLE__MAT_MAT103
  *Elset, elset=ASSEMBLY_ISAMPLE__MAT_MAT104
  *Elset, elset=ASSEMBLY_ISAMPLE__MAT_MAT105
  *Elset, elset=ASSEMBLY_ISAMPLE__MAT_MAT106
  *Elset, elset=ASSEMBLY_ISAMPLE__MAT_MAT107
  *Elset, elset=ASSEMBLY_ISAMPLE__MAT_MAT108
  *Elset, elset=ASSEMBLY_ISAMPLE__MAT_MAT109
  *Elset, elset=ASSEMBLY_ISAMPLE__MAT_MAT11
  *Elset, elset=ASSEMBLY_ISAMPLE__MAT_MAT110
  *Elset, elset=ASSEMBLY_ISAMPLE__MAT_MAT111
  *Elset, elset=ASSEMBLY_ISAMPLE__MAT_MAT112
  *Elset, elset=ASSEMBLY_ISAMPLE__MAT_MAT113
  *Elset, elset=ASSEMBLY_ISAMPLE__MAT_MAT114
  *Elset, elset=ASSEMBLY_ISAMPLE__MAT_MAT115
  *Elset, elset=ASSEMBLY_ISAMPLE__MAT_MAT116
  *Elset, elset=ASSEMBLY_ISAMPLE__MAT_MAT117
  *Elset, elset=ASSEMBLY_ISAMPLE__MAT_MAT118
  *Elset, elset=ASSEMBLY_ISAMPLE__MAT_MAT119
  *Elset, elset=ASSEMBLY_ISAMPLE__MAT_MAT12
  *Elset, elset=ASSEMBLY_ISAMPLE__MAT_MAT120
  *Elset, elset=ASSEMBLY_ISAMPLE__MAT_MAT121
  *Elset, elset=ASSEMBLY_ISAMPLE__MAT_MAT122
  *Elset, elset=ASSEMBLY_ISAMPLE__MAT_MAT123
  *Elset, elset=ASSEMBLY_ISAMPLE__MAT_MAT124
  *Elset, elset=ASSEMBLY_ISAMPLE__MAT_MAT125
  *Elset, elset=ASSEMBLY_ISAMPLE__MAT_MAT126
  *Elset, elset=ASSEMBLY_ISAMPLE__MAT_MAT127
  *Elset, elset=ASSEMBLY_ISAMPLE__MAT_MAT128
  *Elset, elset=ASSEMBLY_ISAMPLE__MAT_MAT129
  *Elset, elset=ASSEMBLY_ISAMPLE__MAT_MAT13
  *Elset, elset=ASSEMBLY_ISAMPLE__MAT_MAT130
  *Elset, elset=ASSEMBLY_ISAMPLE__MAT_MAT131
  *Elset, elset=ASSEMBLY_ISAMPLE__MAT_MAT132
  *Elset, elset=ASSEMBLY_ISAMPLE__MAT_MAT133
  *Elset, elset=ASSEMBLY_ISAMPLE__MAT_MAT134
  *Elset, elset=ASSEMBLY_ISAMPLE__MAT_MAT135
  *Elset, elset=ASSEMBLY_ISAMPLE__MAT_MAT136
  *Elset, elset=ASSEMBLY_ISAMPLE__MAT_MAT137
  *Elset, elset=ASSEMBLY_ISAMPLE__MAT_MAT138
  *Elset, elset=ASSEMBLY_ISAMPLE__MAT_MAT139
  *Elset, elset=ASSEMBLY_ISAMPLE__MAT_MAT14
  *Elset, elset=ASSEMBLY_ISAMPLE__MAT_MAT140
  *Elset, elset=ASSEMBLY_ISAMPLE__MAT_MAT141
  *Elset, elset=ASSEMBLY_ISAMPLE__MAT_MAT142
  *Elset, elset=ASSEMBLY_ISAMPLE__MAT_MAT143
  *Elset, elset=ASSEMBLY_ISAMPLE__MAT_MAT144
  *Elset, elset=ASSEMBLY_ISAMPLE__MAT_MAT145
  *Elset, elset=ASSEMBLY_ISAMPLE__MAT_MAT146
  *Elset, elset=ASSEMBLY_ISAMPLE__MAT_MAT147
  *Elset, elset=ASSEMBLY_ISAMPLE__MAT_MAT148
  *Elset, elset=ASSEMBLY_ISAMPLE__MAT_MAT149
  *Elset, elset=ASSEMBLY_ISAMPLE__MAT_MAT15
  *Elset, elset=ASSEMBLY_ISAMPLE__MAT_MAT150
  *Elset, elset=ASSEMBLY_ISAMPLE__MAT_MAT151
  *Elset, elset=ASSEMBLY_ISAMPLE__MAT_MAT152
  *Elset, elset=ASSEMBLY_ISAMPLE__MAT_MAT153
  *Elset, elset=ASSEMBLY_ISAMPLE__MAT_MAT154
  *Elset, elset=ASSEMBLY_ISAMPLE__MAT_MAT155
  *Elset, elset=ASSEMBLY_ISAMPLE__MAT_MAT156
  *Elset, elset=ASSEMBLY_ISAMPLE__MAT_MAT157
  *Elset, elset=ASSEMBLY_ISAMPLE__MAT_MAT158
  *Elset, elset=ASSEMBLY_ISAMPLE__MAT_MAT159
  *Elset, elset=ASSEMBLY_ISAMPLE__MAT_MAT16
  *Elset, elset=ASSEMBLY_ISAMPLE__MAT_MAT160
  *Elset, elset=ASSEMBLY_ISAMPLE__MAT_MAT161
  *Elset, elset=ASSEMBLY_ISAMPLE__MAT_MAT162
  *Elset, elset=ASSEMBLY_ISAMPLE__MAT_MAT163
  *Elset, elset=ASSEMBLY_ISAMPLE__MAT_MAT164
  *Elset, elset=ASSEMBLY_ISAMPLE__MAT_MAT165
  *Elset, elset=ASSEMBLY_ISAMPLE__MAT_MAT166
  *Elset, elset=ASSEMBLY_ISAMPLE__MAT_MAT167
  *Elset, elset=ASSEMBLY_ISAMPLE__MAT_MAT168
  *Elset, elset=ASSEMBLY_ISAMPLE__MAT_MAT169
  *Elset, elset=ASSEMBLY_ISAMPLE__MAT_MAT17
  *Elset, elset=ASSEMBLY_ISAMPLE__MAT_MAT170
  *Elset, elset=ASSEMBLY_ISAMPLE__MAT_MAT171
  *Elset, elset=ASSEMBLY_ISAMPLE__MAT_MAT172
  *Elset, elset=ASSEMBLY_ISAMPLE__MAT_MAT173
  *Elset, elset=ASSEMBLY_ISAMPLE__MAT_MAT174
  *Elset, elset=ASSEMBLY_ISAMPLE__MAT_MAT175
  *Elset, elset=ASSEMBLY_ISAMPLE__MAT_MAT176
  *Elset, elset=ASSEMBLY_ISAMPLE__MAT_MAT177
  *Elset, elset=ASSEMBLY_ISAMPLE__MAT_MAT178
  *Elset, elset=ASSEMBLY_ISAMPLE__MAT_MAT179
  *Elset, elset=ASSEMBLY_ISAMPLE__MAT_MAT18
  *Elset, elset=ASSEMBLY_ISAMPLE__MAT_MAT180
  *Elset, elset=ASSEMBLY_ISAMPLE__MAT_MAT181
  *Elset, elset=ASSEMBLY_ISAMPLE__MAT_MAT182
  *Elset, elset=ASSEMBLY_ISAMPLE__MAT_MAT183
  *Elset, elset=ASSEMBLY_ISAMPLE__MAT_MAT184
  *Elset, elset=ASSEMBLY_ISAMPLE__MAT_MAT185
  *Elset, elset=ASSEMBLY_ISAMPLE__MAT_MAT186
  *Elset, elset=ASSEMBLY_ISAMPLE__MAT_MAT187
  *Elset, elset=ASSEMBLY_ISAMPLE__MAT_MAT188
  *Elset, elset=ASSEMBLY_ISAMPLE__MAT_MAT189
  *Elset, elset=ASSEMBLY_ISAMPLE__MAT_MAT19
  *Elset, elset=ASSEMBLY_ISAMPLE__MAT_MAT190
  *Elset, elset=ASSEMBLY_ISAMPLE__MAT_MAT191
  *Elset, elset=ASSEMBLY_ISAMPLE__MAT_MAT192
  *Elset, elset=ASSEMBLY_ISAMPLE__MAT_MAT193
  *Elset, elset=ASSEMBLY_ISAMPLE__MAT_MAT194
  *Elset, elset=ASSEMBLY_ISAMPLE__MAT_MAT195
  *Elset, elset=ASSEMBLY_ISAMPLE__MAT_MAT196
  *Elset, elset=ASSEMBLY_ISAMPLE__MAT_MAT197
  *Elset, elset=ASSEMBLY_ISAMPLE__MAT_MAT198
  *Elset, elset=ASSEMBLY_ISAMPLE__MAT_MAT199
  *Elset, elset=ASSEMBLY_ISAMPLE__MAT_MAT2
  *Elset, elset=ASSEMBLY_ISAMPLE__MAT_MAT20
  *Elset, elset=ASSEMBLY_ISAMPLE__MAT_MAT200
  *Elset, elset=ASSEMBLY_ISAMPLE__MAT_MAT201
  *Elset, elset=ASSEMBLY_ISAMPLE__MAT_MAT202
  *Elset, elset=ASSEMBLY_ISAMPLE__MAT_MAT203
  *Elset, elset=ASSEMBLY_ISAMPLE__MAT_MAT204
  *Elset, elset=ASSEMBLY_ISAMPLE__MAT_MAT205
  *Elset, elset=ASSEMBLY_ISAMPLE__MAT_MAT206
  *Elset, elset=ASSEMBLY_ISAMPLE__MAT_MAT207
  *Elset, elset=ASSEMBLY_ISAMPLE__MAT_MAT208
  *Elset, elset=ASSEMBLY_ISAMPLE__MAT_MAT209
  *Elset, elset=ASSEMBLY_ISAMPLE__MAT_MAT21
  *Elset, elset=ASSEMBLY_ISAMPLE__MAT_MAT210
  *Elset, elset=ASSEMBLY_ISAMPLE__MAT_MAT211
  *Elset, elset=ASSEMBLY_ISAMPLE__MAT_MAT212
  *Elset, elset=ASSEMBLY_ISAMPLE__MAT_MAT213
  *Elset, elset=ASSEMBLY_ISAMPLE__MAT_MAT214
  *Elset, elset=ASSEMBLY_ISAMPLE__MAT_MAT215
  *Elset, elset=ASSEMBLY_ISAMPLE__MAT_MAT216
  *Elset, elset=ASSEMBLY_ISAMPLE__MAT_MAT217
  *Elset, elset=ASSEMBLY_ISAMPLE__MAT_MAT218
  *Elset, elset=ASSEMBLY_ISAMPLE__MAT_MAT219
  *Elset, elset=ASSEMBLY_ISAMPLE__MAT_MAT22
  *Elset, elset=ASSEMBLY_ISAMPLE__MAT_MAT220
  *Elset, elset=ASSEMBLY_ISAMPLE__MAT_MAT221
  *Elset, elset=ASSEMBLY_ISAMPLE__MAT_MAT222
  *Elset, elset=ASSEMBLY_ISAMPLE__MAT_MAT223
  *Elset, elset=ASSEMBLY_ISAMPLE__MAT_MAT224
  *Elset, elset=ASSEMBLY_ISAMPLE__MAT_MAT225
  *Elset, elset=ASSEMBLY_ISAMPLE__MAT_MAT226
  *Elset, elset=ASSEMBLY_ISAMPLE__MAT_MAT227
  *Elset, elset=ASSEMBLY_ISAMPLE__MAT_MAT228
  *Elset, elset=ASSEMBLY_ISAMPLE__MAT_MAT229
  *Elset, elset=ASSEMBLY_ISAMPLE__MAT_MAT23
  *Elset, elset=ASSEMBLY_ISAMPLE__MAT_MAT230
  *Elset, elset=ASSEMBLY_ISAMPLE__MAT_MAT231
  *Elset, elset=ASSEMBLY_ISAMPLE__MAT_MAT232
  *Elset, elset=ASSEMBLY_ISAMPLE__MAT_MAT233
  *Elset, elset=ASSEMBLY_ISAMPLE__MAT_MAT234
  *Elset, elset=ASSEMBLY_ISAMPLE__MAT_MAT235
  *Elset, elset=ASSEMBLY_ISAMPLE__MAT_MAT236
  *Elset, elset=ASSEMBLY_ISAMPLE__MAT_MAT237
  *Elset, elset=ASSEMBLY_ISAMPLE__MAT_MAT238
  *Elset, elset=ASSEMBLY_ISAMPLE__MAT_MAT239
  *Elset, elset=ASSEMBLY_ISAMPLE__MAT_MAT24
  *Elset, elset=ASSEMBLY_ISAMPLE__MAT_MAT240
  *Elset, elset=ASSEMBLY_ISAMPLE__MAT_MAT241
  *Elset, elset=ASSEMBLY_ISAMPLE__MAT_MAT242
  *Elset, elset=ASSEMBLY_ISAMPLE__MAT_MAT243
  *Elset, elset=ASSEMBLY_ISAMPLE__MAT_MAT244
  *Elset, elset=ASSEMBLY_ISAMPLE__MAT_MAT245
  *Elset, elset=ASSEMBLY_ISAMPLE__MAT_MAT246
  *Elset, elset=ASSEMBLY_ISAMPLE__MAT_MAT247
  *Elset, elset=ASSEMBLY_ISAMPLE__MAT_MAT248
  *Elset, elset=ASSEMBLY_ISAMPLE__MAT_MAT249
  *Elset, elset=ASSEMBLY_ISAMPLE__MAT_MAT25
  *Elset, elset=ASSEMBLY_ISAMPLE__MAT_MAT250
  *Elset, elset=ASSEMBLY_ISAMPLE__MAT_MAT251
  *Elset, elset=ASSEMBLY_ISAMPLE__MAT_MAT252
  *Elset, elset=ASSEMBLY_ISAMPLE__MAT_MAT253
  *Elset, elset=ASSEMBLY_ISAMPLE__MAT_MAT254
  *Elset, elset=ASSEMBLY_ISAMPLE__MAT_MAT255
  *Elset, elset=ASSEMBLY_ISAMPLE__MAT_MAT256
  *Elset, elset=ASSEMBLY_ISAMPLE__MAT_MAT257
  *Elset, elset=ASSEMBLY_ISAMPLE__MAT_MAT258
  *Elset, elset=ASSEMBLY_ISAMPLE__MAT_MAT259
  *Elset, elset=ASSEMBLY_ISAMPLE__MAT_MAT26
  *Elset, elset=ASSEMBLY_ISAMPLE__MAT_MAT260
  *Elset, elset=ASSEMBLY_ISAMPLE__MAT_MAT261
  *Elset, elset=ASSEMBLY_ISAMPLE__MAT_MAT262
  *Elset, elset=ASSEMBLY_ISAMPLE__MAT_MAT263
  *Elset, elset=ASSEMBLY_ISAMPLE__MAT_MAT264
  *Elset, elset=ASSEMBLY_ISAMPLE__MAT_MAT265
  *Elset, elset=ASSEMBLY_ISAMPLE__MAT_MAT266
  *Elset, elset=ASSEMBLY_ISAMPLE__MAT_MAT267
  *Elset, elset=ASSEMBLY_ISAMPLE__MAT_MAT268
  *Elset, elset=ASSEMBLY_ISAMPLE__MAT_MAT269
  *Elset, elset=ASSEMBLY_ISAMPLE__MAT_MAT27
  *Elset, elset=ASSEMBLY_ISAMPLE__MAT_MAT270
  *Elset, elset=ASSEMBLY_ISAMPLE__MAT_MAT271
  *Elset, elset=ASSEMBLY_ISAMPLE__MAT_MAT272
  *Elset, elset=ASSEMBLY_ISAMPLE__MAT_MAT273
  *Elset, elset=ASSEMBLY_ISAMPLE__MAT_MAT274
  *Elset, elset=ASSEMBLY_ISAMPLE__MAT_MAT275
  *Elset, elset=ASSEMBLY_ISAMPLE__MAT_MAT276
  *Elset, elset=ASSEMBLY_ISAMPLE__MAT_MAT277
  *Elset, elset=ASSEMBLY_ISAMPLE__MAT_MAT278
  *Elset, elset=ASSEMBLY_ISAMPLE__MAT_MAT279
  *Elset, elset=ASSEMBLY_ISAMPLE__MAT_MAT28
  *Elset, elset=ASSEMBLY_ISAMPLE__MAT_MAT280
  *Elset, elset=ASSEMBLY_ISAMPLE__MAT_MAT281
  *Elset, elset=ASSEMBLY_ISAMPLE__MAT_MAT282
  *Elset, elset=ASSEMBLY_ISAMPLE__MAT_MAT283
  *Elset, elset=ASSEMBLY_ISAMPLE__MAT_MAT284
  *Elset, elset=ASSEMBLY_ISAMPLE__MAT_MAT285
  *Elset, elset=ASSEMBLY_ISAMPLE__MAT_MAT286
  *Elset, elset=ASSEMBLY_ISAMPLE__MAT_MAT287
  *Elset, elset=ASSEMBLY_ISAMPLE__MAT_MAT288
  *Elset, elset=ASSEMBLY_ISAMPLE__MAT_MAT289
  *Elset, elset=ASSEMBLY_ISAMPLE__MAT_MAT29
  *Elset, elset=ASSEMBLY_ISAMPLE__MAT_MAT290
  *Elset, elset=ASSEMBLY_ISAMPLE__MAT_MAT291
  *Elset, elset=ASSEMBLY_ISAMPLE__MAT_MAT292
  *Elset, elset=ASSEMBLY_ISAMPLE__MAT_MAT293
  *Elset, elset=ASSEMBLY_ISAMPLE__MAT_MAT294
  *Elset, elset=ASSEMBLY_ISAMPLE__MAT_MAT295
  *Elset, elset=ASSEMBLY_ISAMPLE__MAT_MAT296
  *Elset, elset=ASSEMBLY_ISAMPLE__MAT_MAT297
  *Elset, elset=ASSEMBLY_ISAMPLE__MAT_MAT298
  *Elset, elset=ASSEMBLY_ISAMPLE__MAT_MAT299
  *Elset, elset=ASSEMBLY_ISAMPLE__MAT_MAT3
  *Elset, elset=ASSEMBLY_ISAMPLE__MAT_MAT30
  *Elset, elset=ASSEMBLY_ISAMPLE__MAT_MAT300
  *Elset, elset=ASSEMBLY_ISAMPLE__MAT_MAT301
  *Elset, elset=ASSEMBLY_ISAMPLE__MAT_MAT302
  *Elset, elset=ASSEMBLY_ISAMPLE__MAT_MAT303
  *Elset, elset=ASSEMBLY_ISAMPLE__MAT_MAT304
  *Elset, elset=ASSEMBLY_ISAMPLE__MAT_MAT305
  *Elset, elset=ASSEMBLY_ISAMPLE__MAT_MAT306
  *Elset, elset=ASSEMBLY_ISAMPLE__MAT_MAT307
  *Elset, elset=ASSEMBLY_ISAMPLE__MAT_MAT308
  *Elset, elset=ASSEMBLY_ISAMPLE__MAT_MAT309
  *Elset, elset=ASSEMBLY_ISAMPLE__MAT_MAT31
  *Elset, elset=ASSEMBLY_ISAMPLE__MAT_MAT310
  *Elset, elset=ASSEMBLY_ISAMPLE__MAT_MAT311
  *Elset, elset=ASSEMBLY_ISAMPLE__MAT_MAT312
  *Elset, elset=ASSEMBLY_ISAMPLE__MAT_MAT313
  *Elset, elset=ASSEMBLY_ISAMPLE__MAT_MAT314
  *Elset, elset=ASSEMBLY_ISAMPLE__MAT_MAT315
  *Elset, elset=ASSEMBLY_ISAMPLE__MAT_MAT316
  *Elset, elset=ASSEMBLY_ISAMPLE__MAT_MAT317
  *Elset, elset=ASSEMBLY_ISAMPLE__MAT_MAT318
  *Elset, elset=ASSEMBLY_ISAMPLE__MAT_MAT319
  *Elset, elset=ASSEMBLY_ISAMPLE__MAT_MAT32
  *Elset, elset=ASSEMBLY_ISAMPLE__MAT_MAT320
  *Elset, elset=ASSEMBLY_ISAMPLE__MAT_MAT321
  *Elset, elset=ASSEMBLY_ISAMPLE__MAT_MAT322
  *Elset, elset=ASSEMBLY_ISAMPLE__MAT_MAT323
  *Elset, elset=ASSEMBLY_ISAMPLE__MAT_MAT324
  *Elset, elset=ASSEMBLY_ISAMPLE__MAT_MAT325
  *Elset, elset=ASSEMBLY_ISAMPLE__MAT_MAT326
  *Elset, elset=ASSEMBLY_ISAMPLE__MAT_MAT327
  *Elset, elset=ASSEMBLY_ISAMPLE__MAT_MAT328
  *Elset, elset=ASSEMBLY_ISAMPLE__MAT_MAT329
  *Elset, elset=ASSEMBLY_ISAMPLE__MAT_MAT33
  *Elset, elset=ASSEMBLY_ISAMPLE__MAT_MAT330
  *Elset, elset=ASSEMBLY_ISAMPLE__MAT_MAT331
  *Elset, elset=ASSEMBLY_ISAMPLE__MAT_MAT332
  *Elset, elset=ASSEMBLY_ISAMPLE__MAT_MAT333
  *Elset, elset=ASSEMBLY_ISAMPLE__MAT_MAT334
  *Elset, elset=ASSEMBLY_ISAMPLE__MAT_MAT335
  *Elset, elset=ASSEMBLY_ISAMPLE__MAT_MAT336
  *Elset, elset=ASSEMBLY_ISAMPLE__MAT_MAT337
  *Elset, elset=ASSEMBLY_ISAMPLE__MAT_MAT338
  *Elset, elset=ASSEMBLY_ISAMPLE__MAT_MAT339
  *Elset, elset=ASSEMBLY_ISAMPLE__MAT_MAT34
  *Elset, elset=ASSEMBLY_ISAMPLE__MAT_MAT340
  *Elset, elset=ASSEMBLY_ISAMPLE__MAT_MAT341
  *Elset, elset=ASSEMBLY_ISAMPLE__MAT_MAT342
  *Elset, elset=ASSEMBLY_ISAMPLE__MAT_MAT343
  *Elset, elset=ASSEMBLY_ISAMPLE__MAT_MAT344
  *Elset, elset=ASSEMBLY_ISAMPLE__MAT_MAT345
  *Elset, elset=ASSEMBLY_ISAMPLE__MAT_MAT346
  *Elset, elset=ASSEMBLY_ISAMPLE__MAT_MAT347
  *Elset, elset=ASSEMBLY_ISAMPLE__MAT_MAT348
  *Elset, elset=ASSEMBLY_ISAMPLE__MAT_MAT349
  *Elset, elset=ASSEMBLY_ISAMPLE__MAT_MAT35
  *Elset, elset=ASSEMBLY_ISAMPLE__MAT_MAT350
  *Elset, elset=ASSEMBLY_ISAMPLE__MAT_MAT351
  *Elset, elset=ASSEMBLY_ISAMPLE__MAT_MAT352
  *Elset, elset=ASSEMBLY_ISAMPLE__MAT_MAT353
  *Elset, elset=ASSEMBLY_ISAMPLE__MAT_MAT354
  *Elset, elset=ASSEMBLY_ISAMPLE__MAT_MAT355
  *Elset, elset=ASSEMBLY_ISAMPLE__MAT_MAT356
  *Elset, elset=ASSEMBLY_ISAMPLE__MAT_MAT357
  *Elset, elset=ASSEMBLY_ISAMPLE__MAT_MAT358
  *Elset, elset=ASSEMBLY_ISAMPLE__MAT_MAT359
  *Elset, elset=ASSEMBLY_ISAMPLE__MAT_MAT36
  *Elset, elset=ASSEMBLY_ISAMPLE__MAT_MAT360
  *Elset, elset=ASSEMBLY_ISAMPLE__MAT_MAT361
  *Elset, elset=ASSEMBLY_ISAMPLE__MAT_MAT362
  *Elset, elset=ASSEMBLY_ISAMPLE__MAT_MAT363
  *Elset, elset=ASSEMBLY_ISAMPLE__MAT_MAT364
  *Elset, elset=ASSEMBLY_ISAMPLE__MAT_MAT365
  *Elset, elset=ASSEMBLY_ISAMPLE__MAT_MAT366
  *Elset, elset=ASSEMBLY_ISAMPLE__MAT_MAT367
  *Elset, elset=ASSEMBLY_ISAMPLE__MAT_MAT368
  *Elset, elset=ASSEMBLY_ISAMPLE__MAT_MAT369
  *Elset, elset=ASSEMBLY_ISAMPLE__MAT_MAT37
  *Elset, elset=ASSEMBLY_ISAMPLE__MAT_MAT370
  *Elset, elset=ASSEMBLY_ISAMPLE__MAT_MAT371
  *Elset, elset=ASSEMBLY_ISAMPLE__MAT_MAT372
  *Elset, elset=ASSEMBLY_ISAMPLE__MAT_MAT373
  *Elset, elset=ASSEMBLY_ISAMPLE__MAT_MAT374
  *Elset, elset=ASSEMBLY_ISAMPLE__MAT_MAT375
  *Elset, elset=ASSEMBLY_ISAMPLE__MAT_MAT376
  *Elset, elset=ASSEMBLY_ISAMPLE__MAT_MAT377
  *Elset, elset=ASSEMBLY_ISAMPLE__MAT_MAT378
  *Elset, elset=ASSEMBLY_ISAMPLE__MAT_MAT379
  *Elset, elset=ASSEMBLY_ISAMPLE__MAT_MAT38
  *Elset, elset=ASSEMBLY_ISAMPLE__MAT_MAT380
  *Elset, elset=ASSEMBLY_ISAMPLE__MAT_MAT381
  *Elset, elset=ASSEMBLY_ISAMPLE__MAT_MAT382
  *Elset, elset=ASSEMBLY_ISAMPLE__MAT_MAT383
  *Elset, elset=ASSEMBLY_ISAMPLE__MAT_MAT384
  *Elset, elset=ASSEMBLY_ISAMPLE__MAT_MAT385
  *Elset, elset=ASSEMBLY_ISAMPLE__MAT_MAT386
  *Elset, elset=ASSEMBLY_ISAMPLE__MAT_MAT387
  *Elset, elset=ASSEMBLY_ISAMPLE__MAT_MAT388
  *Elset, elset=ASSEMBLY_ISAMPLE__MAT_MAT389
  *Elset, elset=ASSEMBLY_ISAMPLE__MAT_MAT39
  *Elset, elset=ASSEMBLY_ISAMPLE__MAT_MAT390
  *Elset, elset=ASSEMBLY_ISAMPLE__MAT_MAT391
  *Elset, elset=ASSEMBLY_ISAMPLE__MAT_MAT392
  *Elset, elset=ASSEMBLY_ISAMPLE__MAT_MAT393
  *Elset, elset=ASSEMBLY_ISAMPLE__MAT_MAT394
  *Elset, elset=ASSEMBLY_ISAMPLE__MAT_MAT395
  *Elset, elset=ASSEMBLY_ISAMPLE__MAT_MAT396
  *Elset, elset=ASSEMBLY_ISAMPLE__MAT_MAT397
  *Elset, elset=ASSEMBLY_ISAMPLE__MAT_MAT398
  *Elset, elset=ASSEMBLY_ISAMPLE__MAT_MAT399
  *Elset, elset=ASSEMBLY_ISAMPLE__MAT_MAT4
  *Elset, elset=ASSEMBLY_ISAMPLE__MAT_MAT40
  *Elset, elset=ASSEMBLY_ISAMPLE__MAT_MAT400
  *Elset, elset=ASSEMBLY_ISAMPLE__MAT_MAT401
  *Elset, elset=ASSEMBLY_ISAMPLE__MAT_MAT402
  *Elset, elset=ASSEMBLY_ISAMPLE__MAT_MAT403
  *Elset, elset=ASSEMBLY_ISAMPLE__MAT_MAT404
  *Elset, elset=ASSEMBLY_ISAMPLE__MAT_MAT405
  *Elset, elset=ASSEMBLY_ISAMPLE__MAT_MAT406
  *Elset, elset=ASSEMBLY_ISAMPLE__MAT_MAT407
  *Elset, elset=ASSEMBLY_ISAMPLE__MAT_MAT408
  *Elset, elset=ASSEMBLY_ISAMPLE__MAT_MAT409
  *Elset, elset=ASSEMBLY_ISAMPLE__MAT_MAT41
  *Elset, elset=ASSEMBLY_ISAMPLE__MAT_MAT410
  *Elset, elset=ASSEMBLY_ISAMPLE__MAT_MAT411
  *Elset, elset=ASSEMBLY_ISAMPLE__MAT_MAT412
  *Elset, elset=ASSEMBLY_ISAMPLE__MAT_MAT413
  *Elset, elset=ASSEMBLY_ISAMPLE__MAT_MAT414
  *Elset, elset=ASSEMBLY_ISAMPLE__MAT_MAT415
  *Elset, elset=ASSEMBLY_ISAMPLE__MAT_MAT416
  *Elset, elset=ASSEMBLY_ISAMPLE__MAT_MAT417
  *Elset, elset=ASSEMBLY_ISAMPLE__MAT_MAT418
  *Elset, elset=ASSEMBLY_ISAMPLE__MAT_MAT419
  *Elset, elset=ASSEMBLY_ISAMPLE__MAT_MAT42
  *Elset, elset=ASSEMBLY_ISAMPLE__MAT_MAT420
  *Elset, elset=ASSEMBLY_ISAMPLE__MAT_MAT421
  *Elset, elset=ASSEMBLY_ISAMPLE__MAT_MAT422
  *Elset, elset=ASSEMBLY_ISAMPLE__MAT_MAT423
  *Elset, elset=ASSEMBLY_ISAMPLE__MAT_MAT424
  *Elset, elset=ASSEMBLY_ISAMPLE__MAT_MAT425
  *Elset, elset=ASSEMBLY_ISAMPLE__MAT_MAT426
  *Elset, elset=ASSEMBLY_ISAMPLE__MAT_MAT427
  *Elset, elset=ASSEMBLY_ISAMPLE__MAT_MAT428
  *Elset, elset=ASSEMBLY_ISAMPLE__MAT_MAT429
  *Elset, elset=ASSEMBLY_ISAMPLE__MAT_MAT43
  *Elset, elset=ASSEMBLY_ISAMPLE__MAT_MAT430
  *Elset, elset=ASSEMBLY_ISAMPLE__MAT_MAT431
  *Elset, elset=ASSEMBLY_ISAMPLE__MAT_MAT432
  *Elset, elset=ASSEMBLY_ISAMPLE__MAT_MAT433
  *Elset, elset=ASSEMBLY_ISAMPLE__MAT_MAT434
  *Elset, elset=ASSEMBLY_ISAMPLE__MAT_MAT435
  *Elset, elset=ASSEMBLY_ISAMPLE__MAT_MAT436
  *Elset, elset=ASSEMBLY_ISAMPLE__MAT_MAT437
  *Elset, elset=ASSEMBLY_ISAMPLE__MAT_MAT438
  *Elset, elset=ASSEMBLY_ISAMPLE__MAT_MAT439
  *Elset, elset=ASSEMBLY_ISAMPLE__MAT_MAT44
  *Elset, elset=ASSEMBLY_ISAMPLE__MAT_MAT440
  *Elset, elset=ASSEMBLY_ISAMPLE__MAT_MAT441
  *Elset, elset=ASSEMBLY_ISAMPLE__MAT_MAT442
  *Elset, elset=ASSEMBLY_ISAMPLE__MAT_MAT443
  *Elset, elset=ASSEMBLY_ISAMPLE__MAT_MAT444
  *Elset, elset=ASSEMBLY_ISAMPLE__MAT_MAT445
  *Elset, elset=ASSEMBLY_ISAMPLE__MAT_MAT446
  *Elset, elset=ASSEMBLY_ISAMPLE__MAT_MAT447
  *Elset, elset=ASSEMBLY_ISAMPLE__MAT_MAT448
  *Elset, elset=ASSEMBLY_ISAMPLE__MAT_MAT449
  *Elset, elset=ASSEMBLY_ISAMPLE__MAT_MAT45
  *Elset, elset=ASSEMBLY_ISAMPLE__MAT_MAT450
  *Elset, elset=ASSEMBLY_ISAMPLE__MAT_MAT451
  *Elset, elset=ASSEMBLY_ISAMPLE__MAT_MAT452
  *Elset, elset=ASSEMBLY_ISAMPLE__MAT_MAT453
  *Elset, elset=ASSEMBLY_ISAMPLE__MAT_MAT454
  *Elset, elset=ASSEMBLY_ISAMPLE__MAT_MAT455
  *Elset, elset=ASSEMBLY_ISAMPLE__MAT_MAT456
  *Elset, elset=ASSEMBLY_ISAMPLE__MAT_MAT457
  *Elset, elset=ASSEMBLY_ISAMPLE__MAT_MAT458
  *Elset, elset=ASSEMBLY_ISAMPLE__MAT_MAT459
  *Elset, elset=ASSEMBLY_ISAMPLE__MAT_MAT46
  *Elset, elset=ASSEMBLY_ISAMPLE__MAT_MAT460
  *Elset, elset=ASSEMBLY_ISAMPLE__MAT_MAT461
  *Elset, elset=ASSEMBLY_ISAMPLE__MAT_MAT462
  *Elset, elset=ASSEMBLY_ISAMPLE__MAT_MAT463
  *Elset, elset=ASSEMBLY_ISAMPLE__MAT_MAT464
  *Elset, elset=ASSEMBLY_ISAMPLE__MAT_MAT465
  *Elset, elset=ASSEMBLY_ISAMPLE__MAT_MAT466
  *Elset, elset=ASSEMBLY_ISAMPLE__MAT_MAT467
  *Elset, elset=ASSEMBLY_ISAMPLE__MAT_MAT468
  *Elset, elset=ASSEMBLY_ISAMPLE__MAT_MAT469
  *Elset, elset=ASSEMBLY_ISAMPLE__MAT_MAT47
  *Elset, elset=ASSEMBLY_ISAMPLE__MAT_MAT470
  *Elset, elset=ASSEMBLY_ISAMPLE__MAT_MAT471
  *Elset, elset=ASSEMBLY_ISAMPLE__MAT_MAT472
  *Elset, elset=ASSEMBLY_ISAMPLE__MAT_MAT473
  *Elset, elset=ASSEMBLY_ISAMPLE__MAT_MAT474
  *Elset, elset=ASSEMBLY_ISAMPLE__MAT_MAT475
  *Elset, elset=ASSEMBLY_ISAMPLE__MAT_MAT476
  *Elset, elset=ASSEMBLY_ISAMPLE__MAT_MAT477
  *Elset, elset=ASSEMBLY_ISAMPLE__MAT_MAT478
  *Elset, elset=ASSEMBLY_ISAMPLE__MAT_MAT479
  *Elset, elset=ASSEMBLY_ISAMPLE__MAT_MAT48
  *Elset, elset=ASSEMBLY_ISAMPLE__MAT_MAT480
  *Elset, elset=ASSEMBLY_ISAMPLE__MAT_MAT481
  *Elset, elset=ASSEMBLY_ISAMPLE__MAT_MAT482
  *Elset, elset=ASSEMBLY_ISAMPLE__MAT_MAT483
  *Elset, elset=ASSEMBLY_ISAMPLE__MAT_MAT484
  *Elset, elset=ASSEMBLY_ISAMPLE__MAT_MAT485
  *Elset, elset=ASSEMBLY_ISAMPLE__MAT_MAT486
  *Elset, elset=ASSEMBLY_ISAMPLE__MAT_MAT487
  *Elset, elset=ASSEMBLY_ISAMPLE__MAT_MAT488
  *Elset, elset=ASSEMBLY_ISAMPLE__MAT_MAT489
  *Elset, elset=ASSEMBLY_ISAMPLE__MAT_MAT49
  *Elset, elset=ASSEMBLY_ISAMPLE__MAT_MAT490
  *Elset, elset=ASSEMBLY_ISAMPLE__MAT_MAT491
  *Elset, elset=ASSEMBLY_ISAMPLE__MAT_MAT492
  *Elset, elset=ASSEMBLY_ISAMPLE__MAT_MAT493
  *Elset, elset=ASSEMBLY_ISAMPLE__MAT_MAT494
  *Elset, elset=ASSEMBLY_ISAMPLE__MAT_MAT495
  *Elset, elset=ASSEMBLY_ISAMPLE__MAT_MAT496
  *Elset, elset=ASSEMBLY_ISAMPLE__MAT_MAT497
  *Elset, elset=ASSEMBLY_ISAMPLE__MAT_MAT498
  *Elset, elset=ASSEMBLY_ISAMPLE__MAT_MAT499
  *Elset, elset=ASSEMBLY_ISAMPLE__MAT_MAT5
  *Elset, elset=ASSEMBLY_ISAMPLE__MAT_MAT50
  *Elset, elset=ASSEMBLY_ISAMPLE__MAT_MAT500
  *Elset, elset=ASSEMBLY_ISAMPLE__MAT_MAT501
  *Elset, elset=ASSEMBLY_ISAMPLE__MAT_MAT502
  *Elset, elset=ASSEMBLY_ISAMPLE__MAT_MAT503
  *Elset, elset=ASSEMBLY_ISAMPLE__MAT_MAT504
  *Elset, elset=ASSEMBLY_ISAMPLE__MAT_MAT505
  *Elset, elset=ASSEMBLY_ISAMPLE__MAT_MAT506
  *Elset, elset=ASSEMBLY_ISAMPLE__MAT_MAT507
  *Elset, elset=ASSEMBLY_ISAMPLE__MAT_MAT508
  *Elset, elset=ASSEMBLY_ISAMPLE__MAT_MAT509
  *Elset, elset=ASSEMBLY_ISAMPLE__MAT_MAT51
  *Elset, elset=ASSEMBLY_ISAMPLE__MAT_MAT510
  *Elset, elset=ASSEMBLY_ISAMPLE__MAT_MAT511
  *Elset, elset=ASSEMBLY_ISAMPLE__MAT_MAT512
  *Elset, elset=ASSEMBLY_ISAMPLE__MAT_MAT513
  *Elset, elset=ASSEMBLY_ISAMPLE__MAT_MAT514
  *Elset, elset=ASSEMBLY_ISAMPLE__MAT_MAT515
  *Elset, elset=ASSEMBLY_ISAMPLE__MAT_MAT516
  *Elset, elset=ASSEMBLY_ISAMPLE__MAT_MAT517
  *Elset, elset=ASSEMBLY_ISAMPLE__MAT_MAT518
  *Elset, elset=ASSEMBLY_ISAMPLE__MAT_MAT519
  *Elset, elset=ASSEMBLY_ISAMPLE__MAT_MAT52
  *Elset, elset=ASSEMBLY_ISAMPLE__MAT_MAT520
  *Elset, elset=ASSEMBLY_ISAMPLE__MAT_MAT521
  *Elset, elset=ASSEMBLY_ISAMPLE__MAT_MAT522
  *Elset, elset=ASSEMBLY_ISAMPLE__MAT_MAT523
  *Elset, elset=ASSEMBLY_ISAMPLE__MAT_MAT524
  *Elset, elset=ASSEMBLY_ISAMPLE__MAT_MAT525
  *Elset, elset=ASSEMBLY_ISAMPLE__MAT_MAT526
  *Elset, elset=ASSEMBLY_ISAMPLE__MAT_MAT527
  *Elset, elset=ASSEMBLY_ISAMPLE__MAT_MAT528
  *Elset, elset=ASSEMBLY_ISAMPLE__MAT_MAT529
  *Elset, elset=ASSEMBLY_ISAMPLE__MAT_MAT53
  *Elset, elset=ASSEMBLY_ISAMPLE__MAT_MAT530
  *Elset, elset=ASSEMBLY_ISAMPLE__MAT_MAT531
  *Elset, elset=ASSEMBLY_ISAMPLE__MAT_MAT532
  *Elset, elset=ASSEMBLY_ISAMPLE__MAT_MAT533
  *Elset, elset=ASSEMBLY_ISAMPLE__MAT_MAT534
  *Elset, elset=ASSEMBLY_ISAMPLE__MAT_MAT535
  *Elset, elset=ASSEMBLY_ISAMPLE__MAT_MAT536
  *Elset, elset=ASSEMBLY_ISAMPLE__MAT_MAT537
  *Elset, elset=ASSEMBLY_ISAMPLE__MAT_MAT538
  *Elset, elset=ASSEMBLY_ISAMPLE__MAT_MAT539
  *Elset, elset=ASSEMBLY_ISAMPLE__MAT_MAT54
  *Elset, elset=ASSEMBLY_ISAMPLE__MAT_MAT540
  *Elset, elset=ASSEMBLY_ISAMPLE__MAT_MAT541
  *Elset, elset=ASSEMBLY_ISAMPLE__MAT_MAT542
  *Elset, elset=ASSEMBLY_ISAMPLE__MAT_MAT543
  *Elset, elset=ASSEMBLY_ISAMPLE__MAT_MAT544
  *Elset, elset=ASSEMBLY_ISAMPLE__MAT_MAT545
  *Elset, elset=ASSEMBLY_ISAMPLE__MAT_MAT546
  *Elset, elset=ASSEMBLY_ISAMPLE__MAT_MAT547
  *Elset, elset=ASSEMBLY_ISAMPLE__MAT_MAT548
  *Elset, elset=ASSEMBLY_ISAMPLE__MAT_MAT549
  *Elset, elset=ASSEMBLY_ISAMPLE__MAT_MAT55
  *Elset, elset=ASSEMBLY_ISAMPLE__MAT_MAT550
  *Elset, elset=ASSEMBLY_ISAMPLE__MAT_MAT551
  *Elset, elset=ASSEMBLY_ISAMPLE__MAT_MAT552
  *Elset, elset=ASSEMBLY_ISAMPLE__MAT_MAT553
  *Elset, elset=ASSEMBLY_ISAMPLE__MAT_MAT554
  *Elset, elset=ASSEMBLY_ISAMPLE__MAT_MAT555
  *Elset, elset=ASSEMBLY_ISAMPLE__MAT_MAT556
  *Elset, elset=ASSEMBLY_ISAMPLE__MAT_MAT557
  *Elset, elset=ASSEMBLY_ISAMPLE__MAT_MAT558
  *Elset, elset=ASSEMBLY_ISAMPLE__MAT_MAT559
  *Elset, elset=ASSEMBLY_ISAMPLE__MAT_MAT56
  *Elset, elset=ASSEMBLY_ISAMPLE__MAT_MAT560
  *Elset, elset=ASSEMBLY_ISAMPLE__MAT_MAT561
  *Elset, elset=ASSEMBLY_ISAMPLE__MAT_MAT562
  *Elset, elset=ASSEMBLY_ISAMPLE__MAT_MAT563
  *Elset, elset=ASSEMBLY_ISAMPLE__MAT_MAT564
  *Elset, elset=ASSEMBLY_ISAMPLE__MAT_MAT565
  *Elset, elset=ASSEMBLY_ISAMPLE__MAT_MAT566
  *Elset, elset=ASSEMBLY_ISAMPLE__MAT_MAT567
  *Elset, elset=ASSEMBLY_ISAMPLE__MAT_MAT568
  *Elset, elset=ASSEMBLY_ISAMPLE__MAT_MAT569
  *Elset, elset=ASSEMBLY_ISAMPLE__MAT_MAT57
  *Elset, elset=ASSEMBLY_ISAMPLE__MAT_MAT570
  *Elset, elset=ASSEMBLY_ISAMPLE__MAT_MAT571
  *Elset, elset=ASSEMBLY_ISAMPLE__MAT_MAT572
  *Elset, elset=ASSEMBLY_ISAMPLE__MAT_MAT573
  *Elset, elset=ASSEMBLY_ISAMPLE__MAT_MAT574
  *Elset, elset=ASSEMBLY_ISAMPLE__MAT_MAT575
  *Elset, elset=ASSEMBLY_ISAMPLE__MAT_MAT576
  *Elset, elset=ASSEMBLY_ISAMPLE__MAT_MAT577
  *Elset, elset=ASSEMBLY_ISAMPLE__MAT_MAT578
  *Elset, elset=ASSEMBLY_ISAMPLE__MAT_MAT579
  *Elset, elset=ASSEMBLY_ISAMPLE__MAT_MAT58
  *Elset, elset=ASSEMBLY_ISAMPLE__MAT_MAT580
  *Elset, elset=ASSEMBLY_ISAMPLE__MAT_MAT581
  *Elset, elset=ASSEMBLY_ISAMPLE__MAT_MAT582
  *Elset, elset=ASSEMBLY_ISAMPLE__MAT_MAT583
  *Elset, elset=ASSEMBLY_ISAMPLE__MAT_MAT584
  *Elset, elset=ASSEMBLY_ISAMPLE__MAT_MAT585
  *Elset, elset=ASSEMBLY_ISAMPLE__MAT_MAT586
  *Elset, elset=ASSEMBLY_ISAMPLE__MAT_MAT587
  *Elset, elset=ASSEMBLY_ISAMPLE__MAT_MAT588
  *Elset, elset=ASSEMBLY_ISAMPLE__MAT_MAT589
  *Elset, elset=ASSEMBLY_ISAMPLE__MAT_MAT59
  *Elset, elset=ASSEMBLY_ISAMPLE__MAT_MAT590
  *Elset, elset=ASSEMBLY_ISAMPLE__MAT_MAT591
  *Elset, elset=ASSEMBLY_ISAMPLE__MAT_MAT592
  *Elset, elset=ASSEMBLY_ISAMPLE__MAT_MAT593
  *Elset, elset=ASSEMBLY_ISAMPLE__MAT_MAT594
  *Elset, elset=ASSEMBLY_ISAMPLE__MAT_MAT595
  *Elset, elset=ASSEMBLY_ISAMPLE__MAT_MAT596
  *Elset, elset=ASSEMBLY_ISAMPLE__MAT_MAT597
  *Elset, elset=ASSEMBLY_ISAMPLE__MAT_MAT598
  *Elset, elset=ASSEMBLY_ISAMPLE__MAT_MAT599
  *Elset, elset=ASSEMBLY_ISAMPLE__MAT_MAT6
  *Elset, elset=ASSEMBLY_ISAMPLE__MAT_MAT60
  *Elset, elset=ASSEMBLY_ISAMPLE__MAT_MAT600
  *Elset, elset=ASSEMBLY_ISAMPLE__MAT_MAT601
  *Elset, elset=ASSEMBLY_ISAMPLE__MAT_MAT602
  *Elset, elset=ASSEMBLY_ISAMPLE__MAT_MAT603
  *Elset, elset=ASSEMBLY_ISAMPLE__MAT_MAT604
  *Elset, elset=ASSEMBLY_ISAMPLE__MAT_MAT605
  *Elset, elset=ASSEMBLY_ISAMPLE__MAT_MAT606
  *Elset, elset=ASSEMBLY_ISAMPLE__MAT_MAT607
  *Elset, elset=ASSEMBLY_ISAMPLE__MAT_MAT608
  *Elset, elset=ASSEMBLY_ISAMPLE__MAT_MAT609
  *Elset, elset=ASSEMBLY_ISAMPLE__MAT_MAT61
  *Elset, elset=ASSEMBLY_ISAMPLE__MAT_MAT610
  *Elset, elset=ASSEMBLY_ISAMPLE__MAT_MAT611
  *Elset, elset=ASSEMBLY_ISAMPLE__MAT_MAT612
  *Elset, elset=ASSEMBLY_ISAMPLE__MAT_MAT613
  *Elset, elset=ASSEMBLY_ISAMPLE__MAT_MAT614
  *Elset, elset=ASSEMBLY_ISAMPLE__MAT_MAT615
  *Elset, elset=ASSEMBLY_ISAMPLE__MAT_MAT616
  *Elset, elset=ASSEMBLY_ISAMPLE__MAT_MAT617
  *Elset, elset=ASSEMBLY_ISAMPLE__MAT_MAT618
  *Elset, elset=ASSEMBLY_ISAMPLE__MAT_MAT619
  *Elset, elset=ASSEMBLY_ISAMPLE__MAT_MAT62
  *Elset, elset=ASSEMBLY_ISAMPLE__MAT_MAT620
  *Elset, elset=ASSEMBLY_ISAMPLE__MAT_MAT621
  *Elset, elset=ASSEMBLY_ISAMPLE__MAT_MAT622
  *Elset, elset=ASSEMBLY_ISAMPLE__MAT_MAT623
  *Elset, elset=ASSEMBLY_ISAMPLE__MAT_MAT624
  *Elset, elset=ASSEMBLY_ISAMPLE__MAT_MAT625
  *Elset, elset=ASSEMBLY_ISAMPLE__MAT_MAT626
  *Elset, elset=ASSEMBLY_ISAMPLE__MAT_MAT627
  *Elset, elset=ASSEMBLY_ISAMPLE__MAT_MAT628
  *Elset, elset=ASSEMBLY_ISAMPLE__MAT_MAT629
  *Elset, elset=ASSEMBLY_ISAMPLE__MAT_MAT63
  *Elset, elset=ASSEMBLY_ISAMPLE__MAT_MAT630
  *Elset, elset=ASSEMBLY_ISAMPLE__MAT_MAT631
  *Elset, elset=ASSEMBLY_ISAMPLE__MAT_MAT632
  *Elset, elset=ASSEMBLY_ISAMPLE__MAT_MAT633
  *Elset, elset=ASSEMBLY_ISAMPLE__MAT_MAT634
  *Elset, elset=ASSEMBLY_ISAMPLE__MAT_MAT635
  *Elset, elset=ASSEMBLY_ISAMPLE__MAT_MAT636
  *Elset, elset=ASSEMBLY_ISAMPLE__MAT_MAT637
  *Elset, elset=ASSEMBLY_ISAMPLE__MAT_MAT638
  *Elset, elset=ASSEMBLY_ISAMPLE__MAT_MAT639
  *Elset, elset=ASSEMBLY_ISAMPLE__MAT_MAT64
  *Elset, elset=ASSEMBLY_ISAMPLE__MAT_MAT640
  *Elset, elset=ASSEMBLY_ISAMPLE__MAT_MAT641
  *Elset, elset=ASSEMBLY_ISAMPLE__MAT_MAT642
  *Elset, elset=ASSEMBLY_ISAMPLE__MAT_MAT643
  *Elset, elset=ASSEMBLY_ISAMPLE__MAT_MAT644
  *Elset, elset=ASSEMBLY_ISAMPLE__MAT_MAT645
  *Elset, elset=ASSEMBLY_ISAMPLE__MAT_MAT646
  *Elset, elset=ASSEMBLY_ISAMPLE__MAT_MAT647
  *Elset, elset=ASSEMBLY_ISAMPLE__MAT_MAT648
  *Elset, elset=ASSEMBLY_ISAMPLE__MAT_MAT649
  *Elset, elset=ASSEMBLY_ISAMPLE__MAT_MAT65
  *Elset, elset=ASSEMBLY_ISAMPLE__MAT_MAT650
  *Elset, elset=ASSEMBLY_ISAMPLE__MAT_MAT651
  *Elset, elset=ASSEMBLY_ISAMPLE__MAT_MAT652
  *Elset, elset=ASSEMBLY_ISAMPLE__MAT_MAT653
  *Elset, elset=ASSEMBLY_ISAMPLE__MAT_MAT654
  *Elset, elset=ASSEMBLY_ISAMPLE__MAT_MAT655
  *Elset, elset=ASSEMBLY_ISAMPLE__MAT_MAT656
  *Elset, elset=ASSEMBLY_ISAMPLE__MAT_MAT657
  *Elset, elset=ASSEMBLY_ISAMPLE__MAT_MAT658
  *Elset, elset=ASSEMBLY_ISAMPLE__MAT_MAT659
  *Elset, elset=ASSEMBLY_ISAMPLE__MAT_MAT66
  *Elset, elset=ASSEMBLY_ISAMPLE__MAT_MAT660
  *Elset, elset=ASSEMBLY_ISAMPLE__MAT_MAT661
  *Elset, elset=ASSEMBLY_ISAMPLE__MAT_MAT662
  *Elset, elset=ASSEMBLY_ISAMPLE__MAT_MAT663
  *Elset, elset=ASSEMBLY_ISAMPLE__MAT_MAT664
  *Elset, elset=ASSEMBLY_ISAMPLE__MAT_MAT665
  *Elset, elset=ASSEMBLY_ISAMPLE__MAT_MAT666
  *Elset, elset=ASSEMBLY_ISAMPLE__MAT_MAT667
  *Elset, elset=ASSEMBLY_ISAMPLE__MAT_MAT668
  *Elset, elset=ASSEMBLY_ISAMPLE__MAT_MAT669
  *Elset, elset=ASSEMBLY_ISAMPLE__MAT_MAT67
  *Elset, elset=ASSEMBLY_ISAMPLE__MAT_MAT670
  *Elset, elset=ASSEMBLY_ISAMPLE__MAT_MAT671
  *Elset, elset=ASSEMBLY_ISAMPLE__MAT_MAT672
  *Elset, elset=ASSEMBLY_ISAMPLE__MAT_MAT673
  *Elset, elset=ASSEMBLY_ISAMPLE__MAT_MAT674
  *Elset, elset=ASSEMBLY_ISAMPLE__MAT_MAT675
  *Elset, elset=ASSEMBLY_ISAMPLE__MAT_MAT676
  *Elset, elset=ASSEMBLY_ISAMPLE__MAT_MAT677
  *Elset, elset=ASSEMBLY_ISAMPLE__MAT_MAT678
  *Elset, elset=ASSEMBLY_ISAMPLE__MAT_MAT679
  *Elset, elset=ASSEMBLY_ISAMPLE__MAT_MAT68
  *Elset, elset=ASSEMBLY_ISAMPLE__MAT_MAT680
  *Elset, elset=ASSEMBLY_ISAMPLE__MAT_MAT681
  *Elset, elset=ASSEMBLY_ISAMPLE__MAT_MAT682
  *Elset, elset=ASSEMBLY_ISAMPLE__MAT_MAT683
  *Elset, elset=ASSEMBLY_ISAMPLE__MAT_MAT684
  *Elset, elset=ASSEMBLY_ISAMPLE__MAT_MAT685
  *Elset, elset=ASSEMBLY_ISAMPLE__MAT_MAT686
  *Elset, elset=ASSEMBLY_ISAMPLE__MAT_MAT687
  *Elset, elset=ASSEMBLY_ISAMPLE__MAT_MAT688
  *Elset, elset=ASSEMBLY_ISAMPLE__MAT_MAT689
  *Elset, elset=ASSEMBLY_ISAMPLE__MAT_MAT69
  *Elset, elset=ASSEMBLY_ISAMPLE__MAT_MAT690
  *Elset, elset=ASSEMBLY_ISAMPLE__MAT_MAT691
  *Elset, elset=ASSEMBLY_ISAMPLE__MAT_MAT692
  *Elset, elset=ASSEMBLY_ISAMPLE__MAT_MAT693
  *Elset, elset=ASSEMBLY_ISAMPLE__MAT_MAT694
  *Elset, elset=ASSEMBLY_ISAMPLE__MAT_MAT695
  *Elset, elset=ASSEMBLY_ISAMPLE__MAT_MAT696
  *Elset, elset=ASSEMBLY_ISAMPLE__MAT_MAT697
  *Elset, elset=ASSEMBLY_ISAMPLE__MAT_MAT698
  *Elset, elset=ASSEMBLY_ISAMPLE__MAT_MAT699
  *Elset, elset=ASSEMBLY_ISAMPLE__MAT_MAT7
  *Elset, elset=ASSEMBLY_ISAMPLE__MAT_MAT70
  *Elset, elset=ASSEMBLY_ISAMPLE__MAT_MAT700
  *Elset, elset=ASSEMBLY_ISAMPLE__MAT_MAT701
  *Elset, elset=ASSEMBLY_ISAMPLE__MAT_MAT702
  *Elset, elset=ASSEMBLY_ISAMPLE__MAT_MAT703
  *Elset, elset=ASSEMBLY_ISAMPLE__MAT_MAT704
  *Elset, elset=ASSEMBLY_ISAMPLE__MAT_MAT705
  *Elset, elset=ASSEMBLY_ISAMPLE__MAT_MAT706
  *Elset, elset=ASSEMBLY_ISAMPLE__MAT_MAT707
  *Elset, elset=ASSEMBLY_ISAMPLE__MAT_MAT708
  *Elset, elset=ASSEMBLY_ISAMPLE__MAT_MAT709
  *Elset, elset=ASSEMBLY_ISAMPLE__MAT_MAT71
  *Elset, elset=ASSEMBLY_ISAMPLE__MAT_MAT710
  *Elset, elset=ASSEMBLY_ISAMPLE__MAT_MAT711
  *Elset, elset=ASSEMBLY_ISAMPLE__MAT_MAT712
  *Elset, elset=ASSEMBLY_ISAMPLE__MAT_MAT713
  *Elset, elset=ASSEMBLY_ISAMPLE__MAT_MAT714
  *Elset, elset=ASSEMBLY_ISAMPLE__MAT_MAT715
  *Elset, elset=ASSEMBLY_ISAMPLE__MAT_MAT716
  *Elset, elset=ASSEMBLY_ISAMPLE__MAT_MAT717
  *Elset, elset=ASSEMBLY_ISAMPLE__MAT_MAT718
  *Elset, elset=ASSEMBLY_ISAMPLE__MAT_MAT719
  *Elset, elset=ASSEMBLY_ISAMPLE__MAT_MAT72
  *Elset, elset=ASSEMBLY_ISAMPLE__MAT_MAT720
  *Elset, elset=ASSEMBLY_ISAMPLE__MAT_MAT721
  *Elset, elset=ASSEMBLY_ISAMPLE__MAT_MAT722
  *Elset, elset=ASSEMBLY_ISAMPLE__MAT_MAT723
  *Elset, elset=ASSEMBLY_ISAMPLE__MAT_MAT724
  *Elset, elset=ASSEMBLY_ISAMPLE__MAT_MAT725
  *Elset, elset=ASSEMBLY_ISAMPLE__MAT_MAT726
  *Elset, elset=ASSEMBLY_ISAMPLE__MAT_MAT727
  *Elset, elset=ASSEMBLY_ISAMPLE__MAT_MAT728
  *Elset, elset=ASSEMBLY_ISAMPLE__MAT_MAT729
  *Elset, elset=ASSEMBLY_ISAMPLE__MAT_MAT73
  *Elset, elset=ASSEMBLY_ISAMPLE__MAT_MAT730
  *Elset, elset=ASSEMBLY_ISAMPLE__MAT_MAT731
  *Elset, elset=ASSEMBLY_ISAMPLE__MAT_MAT732
  *Elset, elset=ASSEMBLY_ISAMPLE__MAT_MAT733
  *Elset, elset=ASSEMBLY_ISAMPLE__MAT_MAT734
  *Elset, elset=ASSEMBLY_ISAMPLE__MAT_MAT735
  *Elset, elset=ASSEMBLY_ISAMPLE__MAT_MAT736
  *Elset, elset=ASSEMBLY_ISAMPLE__MAT_MAT737
  *Elset, elset=ASSEMBLY_ISAMPLE__MAT_MAT738
  *Elset, elset=ASSEMBLY_ISAMPLE__MAT_MAT739
  *Elset, elset=ASSEMBLY_ISAMPLE__MAT_MAT74
  *Elset, elset=ASSEMBLY_ISAMPLE__MAT_MAT740
  *Elset, elset=ASSEMBLY_ISAMPLE__MAT_MAT741
  *Elset, elset=ASSEMBLY_ISAMPLE__MAT_MAT742
  *Elset, elset=ASSEMBLY_ISAMPLE__MAT_MAT743
  *Elset, elset=ASSEMBLY_ISAMPLE__MAT_MAT744
  *Elset, elset=ASSEMBLY_ISAMPLE__MAT_MAT745
  *Elset, elset=ASSEMBLY_ISAMPLE__MAT_MAT746
  *Elset, elset=ASSEMBLY_ISAMPLE__MAT_MAT747
  *Elset, elset=ASSEMBLY_ISAMPLE__MAT_MAT748
  *Elset, elset=ASSEMBLY_ISAMPLE__MAT_MAT749
  *Elset, elset=ASSEMBLY_ISAMPLE__MAT_MAT75
  *Elset, elset=ASSEMBLY_ISAMPLE__MAT_MAT750
  *Elset, elset=ASSEMBLY_ISAMPLE__MAT_MAT751
  *Elset, elset=ASSEMBLY_ISAMPLE__MAT_MAT752
  *Elset, elset=ASSEMBLY_ISAMPLE__MAT_MAT753
  *Elset, elset=ASSEMBLY_ISAMPLE__MAT_MAT754
  *Elset, elset=ASSEMBLY_ISAMPLE__MAT_MAT755
  *Elset, elset=ASSEMBLY_ISAMPLE__MAT_MAT756
  *Elset, elset=ASSEMBLY_ISAMPLE__MAT_MAT757
  *Elset, elset=ASSEMBLY_ISAMPLE__MAT_MAT758
  *Elset, elset=ASSEMBLY_ISAMPLE__MAT_MAT759
  *Elset, elset=ASSEMBLY_ISAMPLE__MAT_MAT76
  *Elset, elset=ASSEMBLY_ISAMPLE__MAT_MAT760
  *Elset, elset=ASSEMBLY_ISAMPLE__MAT_MAT761
  *Elset, elset=ASSEMBLY_ISAMPLE__MAT_MAT762
  *Elset, elset=ASSEMBLY_ISAMPLE__MAT_MAT763
  *Elset, elset=ASSEMBLY_ISAMPLE__MAT_MAT764
  *Elset, elset=ASSEMBLY_ISAMPLE__MAT_MAT765
  *Elset, elset=ASSEMBLY_ISAMPLE__MAT_MAT766
  *Elset, elset=ASSEMBLY_ISAMPLE__MAT_MAT767
  *Elset, elset=ASSEMBLY_ISAMPLE__MAT_MAT768
  *Elset, elset=ASSEMBLY_ISAMPLE__MAT_MAT769
  *Elset, elset=ASSEMBLY_ISAMPLE__MAT_MAT77
  *Elset, elset=ASSEMBLY_ISAMPLE__MAT_MAT770
  *Elset, elset=ASSEMBLY_ISAMPLE__MAT_MAT771
  *Elset, elset=ASSEMBLY_ISAMPLE__MAT_MAT772
  *Elset, elset=ASSEMBLY_ISAMPLE__MAT_MAT773
  *Elset, elset=ASSEMBLY_ISAMPLE__MAT_MAT774
  *Elset, elset=ASSEMBLY_ISAMPLE__MAT_MAT775
  *Elset, elset=ASSEMBLY_ISAMPLE__MAT_MAT776
  *Elset, elset=ASSEMBLY_ISAMPLE__MAT_MAT777
  *Elset, elset=ASSEMBLY_ISAMPLE__MAT_MAT778
  *Elset, elset=ASSEMBLY_ISAMPLE__MAT_MAT779
  *Elset, elset=ASSEMBLY_ISAMPLE__MAT_MAT78
  *Elset, elset=ASSEMBLY_ISAMPLE__MAT_MAT780
  *Elset, elset=ASSEMBLY_ISAMPLE__MAT_MAT781
  *Elset, elset=ASSEMBLY_ISAMPLE__MAT_MAT782
  *Elset, elset=ASSEMBLY_ISAMPLE__MAT_MAT783
  *Elset, elset=ASSEMBLY_ISAMPLE__MAT_MAT784
  *Elset, elset=ASSEMBLY_ISAMPLE__MAT_MAT785
  *Elset, elset=ASSEMBLY_ISAMPLE__MAT_MAT786
  *Elset, elset=ASSEMBLY_ISAMPLE__MAT_MAT787
  *Elset, elset=ASSEMBLY_ISAMPLE__MAT_MAT788
  *Elset, elset=ASSEMBLY_ISAMPLE__MAT_MAT789
  *Elset, elset=ASSEMBLY_ISAMPLE__MAT_MAT79
  *Elset, elset=ASSEMBLY_ISAMPLE__MAT_MAT790
  *Elset, elset=ASSEMBLY_ISAMPLE__MAT_MAT791
  *Elset, elset=ASSEMBLY_ISAMPLE__MAT_MAT792
  *Elset, elset=ASSEMBLY_ISAMPLE__MAT_MAT793
  *Elset, elset=ASSEMBLY_ISAMPLE__MAT_MAT794
  *Elset, elset=ASSEMBLY_ISAMPLE__MAT_MAT795
  *Elset, elset=ASSEMBLY_ISAMPLE__MAT_MAT796
  *Elset, elset=ASSEMBLY_ISAMPLE__MAT_MAT797
  *Elset, elset=ASSEMBLY_ISAMPLE__MAT_MAT798
  *Elset, elset=ASSEMBLY_ISAMPLE__MAT_MAT799
  *Elset, elset=ASSEMBLY_ISAMPLE__MAT_MAT8
  *Elset, elset=ASSEMBLY_ISAMPLE__MAT_MAT80
  *Elset, elset=ASSEMBLY_ISAMPLE__MAT_MAT800
  *Elset, elset=ASSEMBLY_ISAMPLE__MAT_MAT801
  *Elset, elset=ASSEMBLY_ISAMPLE__MAT_MAT802
  *Elset, elset=ASSEMBLY_ISAMPLE__MAT_MAT803
  *Elset, elset=ASSEMBLY_ISAMPLE__MAT_MAT804
  *Elset, elset=ASSEMBLY_ISAMPLE__MAT_MAT805
  *Elset, elset=ASSEMBLY_ISAMPLE__MAT_MAT806
  *Elset, elset=ASSEMBLY_ISAMPLE__MAT_MAT807
  *Elset, elset=ASSEMBLY_ISAMPLE__MAT_MAT808
  *Elset, elset=ASSEMBLY_ISAMPLE__MAT_MAT809
  *Elset, elset=ASSEMBLY_ISAMPLE__MAT_MAT81
  *Elset, elset=ASSEMBLY_ISAMPLE__MAT_MAT810
  *Elset, elset=ASSEMBLY_ISAMPLE__MAT_MAT811
  *Elset, elset=ASSEMBLY_ISAMPLE__MAT_MAT812
  *Elset, elset=ASSEMBLY_ISAMPLE__MAT_MAT813
  *Elset, elset=ASSEMBLY_ISAMPLE__MAT_MAT814
  *Elset, elset=ASSEMBLY_ISAMPLE__MAT_MAT815
  *Elset, elset=ASSEMBLY_ISAMPLE__MAT_MAT816
  *Elset, elset=ASSEMBLY_ISAMPLE__MAT_MAT817
  *Elset, elset=ASSEMBLY_ISAMPLE__MAT_MAT818
  *Elset, elset=ASSEMBLY_ISAMPLE__MAT_MAT819
  *Elset, elset=ASSEMBLY_ISAMPLE__MAT_MAT82
  *Elset, elset=ASSEMBLY_ISAMPLE__MAT_MAT820
  *Elset, elset=ASSEMBLY_ISAMPLE__MAT_MAT821
  *Elset, elset=ASSEMBLY_ISAMPLE__MAT_MAT822
  *Elset, elset=ASSEMBLY_ISAMPLE__MAT_MAT823
  *Elset, elset=ASSEMBLY_ISAMPLE__MAT_MAT824
  *Elset, elset=ASSEMBLY_ISAMPLE__MAT_MAT825
  *Elset, elset=ASSEMBLY_ISAMPLE__MAT_MAT826
  *Elset, elset=ASSEMBLY_ISAMPLE__MAT_MAT827
  *Elset, elset=ASSEMBLY_ISAMPLE__MAT_MAT828
  *Elset, elset=ASSEMBLY_ISAMPLE__MAT_MAT829
  *Elset, elset=ASSEMBLY_ISAMPLE__MAT_MAT83
  *Elset, elset=ASSEMBLY_ISAMPLE__MAT_MAT830
  *Elset, elset=ASSEMBLY_ISAMPLE__MAT_MAT831
  *Elset, elset=ASSEMBLY_ISAMPLE__MAT_MAT832
  *Elset, elset=ASSEMBLY_ISAMPLE__MAT_MAT833
  *Elset, elset=ASSEMBLY_ISAMPLE__MAT_MAT834
  *Elset, elset=ASSEMBLY_ISAMPLE__MAT_MAT835
  *Elset, elset=ASSEMBLY_ISAMPLE__MAT_MAT836
  *Elset, elset=ASSEMBLY_ISAMPLE__MAT_MAT837
  *Elset, elset=ASSEMBLY_ISAMPLE__MAT_MAT838
  *Elset, elset=ASSEMBLY_ISAMPLE__MAT_MAT839
  *Elset, elset=ASSEMBLY_ISAMPLE__MAT_MAT84
  *Elset, elset=ASSEMBLY_ISAMPLE__MAT_MAT840
  *Elset, elset=ASSEMBLY_ISAMPLE__MAT_MAT841
  *Elset, elset=ASSEMBLY_ISAMPLE__MAT_MAT842
  *Elset, elset=ASSEMBLY_ISAMPLE__MAT_MAT843
  *Elset, elset=ASSEMBLY_ISAMPLE__MAT_MAT844
  *Elset, elset=ASSEMBLY_ISAMPLE__MAT_MAT845
  *Elset, elset=ASSEMBLY_ISAMPLE__MAT_MAT846
  *Elset, elset=ASSEMBLY_ISAMPLE__MAT_MAT847
  *Elset, elset=ASSEMBLY_ISAMPLE__MAT_MAT848
  *Elset, elset=ASSEMBLY_ISAMPLE__MAT_MAT849
  *Elset, elset=ASSEMBLY_ISAMPLE__MAT_MAT85
  *Elset, elset=ASSEMBLY_ISAMPLE__MAT_MAT850
  *Elset, elset=ASSEMBLY_ISAMPLE__MAT_MAT851
  *Elset, elset=ASSEMBLY_ISAMPLE__MAT_MAT852
  *Elset, elset=ASSEMBLY_ISAMPLE__MAT_MAT853
  *Elset, elset=ASSEMBLY_ISAMPLE__MAT_MAT854
  *Elset, elset=ASSEMBLY_ISAMPLE__MAT_MAT855
  *Elset, elset=ASSEMBLY_ISAMPLE__MAT_MAT856
  *Elset, elset=ASSEMBLY_ISAMPLE__MAT_MAT857
  *Elset, elset=ASSEMBLY_ISAMPLE__MAT_MAT858
  *Elset, elset=ASSEMBLY_ISAMPLE__MAT_MAT859
  *Elset, elset=ASSEMBLY_ISAMPLE__MAT_MAT86
  *Elset, elset=ASSEMBLY_ISAMPLE__MAT_MAT860
  *Elset, elset=ASSEMBLY_ISAMPLE__MAT_MAT861
  *Elset, elset=ASSEMBLY_ISAMPLE__MAT_MAT862
  *Elset, elset=ASSEMBLY_ISAMPLE__MAT_MAT863
  *Elset, elset=ASSEMBLY_ISAMPLE__MAT_MAT864
  *Elset, elset=ASSEMBLY_ISAMPLE__MAT_MAT865
  *Elset, elset=ASSEMBLY_ISAMPLE__MAT_MAT866
  *Elset, elset=ASSEMBLY_ISAMPLE__MAT_MAT867
  *Elset, elset=ASSEMBLY_ISAMPLE__MAT_MAT868
  *Elset, elset=ASSEMBLY_ISAMPLE__MAT_MAT869
  *Elset, elset=ASSEMBLY_ISAMPLE__MAT_MAT87
  *Elset, elset=ASSEMBLY_ISAMPLE__MAT_MAT870
  *Elset, elset=ASSEMBLY_ISAMPLE__MAT_MAT871
  *Elset, elset=ASSEMBLY_ISAMPLE__MAT_MAT872
  *Elset, elset=ASSEMBLY_ISAMPLE__MAT_MAT873
  *Elset, elset=ASSEMBLY_ISAMPLE__MAT_MAT874
  *Elset, elset=ASSEMBLY_ISAMPLE__MAT_MAT875
  *Elset, elset=ASSEMBLY_ISAMPLE__MAT_MAT876
  *Elset, elset=ASSEMBLY_ISAMPLE__MAT_MAT877
  *Elset, elset=ASSEMBLY_ISAMPLE__MAT_MAT878
  *Elset, elset=ASSEMBLY_ISAMPLE__MAT_MAT879
  *Elset, elset=ASSEMBLY_ISAMPLE__MAT_MAT88
  *Elset, elset=ASSEMBLY_ISAMPLE__MAT_MAT880
  *Elset, elset=ASSEMBLY_ISAMPLE__MAT_MAT881
  *Elset, elset=ASSEMBLY_ISAMPLE__MAT_MAT882
  *Elset, elset=ASSEMBLY_ISAMPLE__MAT_MAT883
  *Elset, elset=ASSEMBLY_ISAMPLE__MAT_MAT884
  *Elset, elset=ASSEMBLY_ISAMPLE__MAT_MAT885
  *Elset, elset=ASSEMBLY_ISAMPLE__MAT_MAT886
  *Elset, elset=ASSEMBLY_ISAMPLE__MAT_MAT887
  *Elset, elset=ASSEMBLY_ISAMPLE__MAT_MAT888
  *Elset, elset=ASSEMBLY_ISAMPLE__MAT_MAT889
  *Elset, elset=ASSEMBLY_ISAMPLE__MAT_MAT89
  *Elset, elset=ASSEMBLY_ISAMPLE__MAT_MAT890
  *Elset, elset=ASSEMBLY_ISAMPLE__MAT_MAT891
  *Elset, elset=ASSEMBLY_ISAMPLE__MAT_MAT892
  *Elset, elset=ASSEMBLY_ISAMPLE__MAT_MAT893
  *Elset, elset=ASSEMBLY_ISAMPLE__MAT_MAT894
  *Elset, elset=ASSEMBLY_ISAMPLE__MAT_MAT895
  *Elset, elset=ASSEMBLY_ISAMPLE__MAT_MAT896
  *Elset, elset=ASSEMBLY_ISAMPLE__MAT_MAT897
  *Elset, elset=ASSEMBLY_ISAMPLE__MAT_MAT898
  *Elset, elset=ASSEMBLY_ISAMPLE__MAT_MAT899
  *Elset, elset=ASSEMBLY_ISAMPLE__MAT_MAT9
  *Elset, elset=ASSEMBLY_ISAMPLE__MAT_MAT90
  *Elset, elset=ASSEMBLY_ISAMPLE__MAT_MAT900
  *Elset, elset=ASSEMBLY_ISAMPLE__MAT_MAT901
  *Elset, elset=ASSEMBLY_ISAMPLE__MAT_MAT902
  *Elset, elset=ASSEMBLY_ISAMPLE__MAT_MAT903
  *Elset, elset=ASSEMBLY_ISAMPLE__MAT_MAT904
  *Elset, elset=ASSEMBLY_ISAMPLE__MAT_MAT905
  *Elset, elset=ASSEMBLY_ISAMPLE__MAT_MAT906
  *Elset, elset=ASSEMBLY_ISAMPLE__MAT_MAT907
  *Elset, elset=ASSEMBLY_ISAMPLE__MAT_MAT908
  *Elset, elset=ASSEMBLY_ISAMPLE__MAT_MAT909
  *Elset, elset=ASSEMBLY_ISAMPLE__MAT_MAT91
  *Elset, elset=ASSEMBLY_ISAMPLE__MAT_MAT910
  *Elset, elset=ASSEMBLY_ISAMPLE__MAT_MAT911
  *Elset, elset=ASSEMBLY_ISAMPLE__MAT_MAT912
  *Elset, elset=ASSEMBLY_ISAMPLE__MAT_MAT913
  *Elset, elset=ASSEMBLY_ISAMPLE__MAT_MAT914
  *Elset, elset=ASSEMBLY_ISAMPLE__MAT_MAT915
  *Elset, elset=ASSEMBLY_ISAMPLE__MAT_MAT916
  *Elset, elset=ASSEMBLY_ISAMPLE__MAT_MAT917
  *Elset, elset=ASSEMBLY_ISAMPLE__MAT_MAT918
  *Elset, elset=ASSEMBLY_ISAMPLE__MAT_MAT919
  *Elset, elset=ASSEMBLY_ISAMPLE__MAT_MAT92
  *Elset, elset=ASSEMBLY_ISAMPLE__MAT_MAT920
  *Elset, elset=ASSEMBLY_ISAMPLE__MAT_MAT921
  *Elset, elset=ASSEMBLY_ISAMPLE__MAT_MAT922
  *Elset, elset=ASSEMBLY_ISAMPLE__MAT_MAT923
  *Elset, elset=ASSEMBLY_ISAMPLE__MAT_MAT924
  *Elset, elset=ASSEMBLY_ISAMPLE__MAT_MAT925
  *Elset, elset=ASSEMBLY_ISAMPLE__MAT_MAT926
  *Elset, elset=ASSEMBLY_ISAMPLE__MAT_MAT927
  *Elset, elset=ASSEMBLY_ISAMPLE__MAT_MAT928
  *Elset, elset=ASSEMBLY_ISAMPLE__MAT_MAT929
  *Elset, elset=ASSEMBLY_ISAMPLE__MAT_MAT93
  *Elset, elset=ASSEMBLY_ISAMPLE__MAT_MAT930
  *Elset, elset=ASSEMBLY_ISAMPLE__MAT_MAT931
  *Elset, elset=ASSEMBLY_ISAMPLE__MAT_MAT932
  *Elset, elset=ASSEMBLY_ISAMPLE__MAT_MAT933
  *Elset, elset=ASSEMBLY_ISAMPLE__MAT_MAT934
  *Elset, elset=ASSEMBLY_ISAMPLE__MAT_MAT935
  *Elset, elset=ASSEMBLY_ISAMPLE__MAT_MAT936
  *Elset, elset=ASSEMBLY_ISAMPLE__MAT_MAT937
  *Elset, elset=ASSEMBLY_ISAMPLE__MAT_MAT938
  *Elset, elset=ASSEMBLY_ISAMPLE__MAT_MAT939
  *Elset, elset=ASSEMBLY_ISAMPLE__MAT_MAT94
  *Elset, elset=ASSEMBLY_ISAMPLE__MAT_MAT940
  *Elset, elset=ASSEMBLY_ISAMPLE__MAT_MAT941
  *Elset, elset=ASSEMBLY_ISAMPLE__MAT_MAT942
  *Elset, elset=ASSEMBLY_ISAMPLE__MAT_MAT943
  *Elset, elset=ASSEMBLY_ISAMPLE__MAT_MAT944
  *Elset, elset=ASSEMBLY_ISAMPLE__MAT_MAT945
  *Elset, elset=ASSEMBLY_ISAMPLE__MAT_MAT946
  *Elset, elset=ASSEMBLY_ISAMPLE__MAT_MAT947
  *Elset, elset=ASSEMBLY_ISAMPLE__MAT_MAT948
  *Elset, elset=ASSEMBLY_ISAMPLE__MAT_MAT949
  *Elset, elset=ASSEMBLY_ISAMPLE__MAT_MAT95
  *Elset, elset=ASSEMBLY_ISAMPLE__MAT_MAT950
  *Elset, elset=ASSEMBLY_ISAMPLE__MAT_MAT951
  *Elset, elset=ASSEMBLY_ISAMPLE__MAT_MAT952
  *Elset, elset=ASSEMBLY_ISAMPLE__MAT_MAT953
  *Elset, elset=ASSEMBLY_ISAMPLE__MAT_MAT954
  *Elset, elset=ASSEMBLY_ISAMPLE__MAT_MAT955
  *Elset, elset=ASSEMBLY_ISAMPLE__MAT_MAT956
  *Elset, elset=ASSEMBLY_ISAMPLE__MAT_MAT957
  *Elset, elset=ASSEMBLY_ISAMPLE__MAT_MAT958
  *Elset, elset=ASSEMBLY_ISAMPLE__MAT_MAT959
  *Elset, elset=ASSEMBLY_ISAMPLE__MAT_MAT96
  *Elset, elset=ASSEMBLY_ISAMPLE__MAT_MAT960
  *Elset, elset=ASSEMBLY_ISAMPLE__MAT_MAT961
  *Elset, elset=ASSEMBLY_ISAMPLE__MAT_MAT962
  *Elset, elset=ASSEMBLY_ISAMPLE__MAT_MAT963
  *Elset, elset=ASSEMBLY_ISAMPLE__MAT_MAT964
  *Elset, elset=ASSEMBLY_ISAMPLE__MAT_MAT965
  *Elset, elset=ASSEMBLY_ISAMPLE__MAT_MAT966
  *Elset, elset=ASSEMBLY_ISAMPLE__MAT_MAT967
  *Elset, elset=ASSEMBLY_ISAMPLE__MAT_MAT968
  *Elset, elset=ASSEMBLY_ISAMPLE__MAT_MAT969
  *Elset, elset=ASSEMBLY_ISAMPLE__MAT_MAT97
  *Elset, elset=ASSEMBLY_ISAMPLE__MAT_MAT970
  *Elset, elset=ASSEMBLY_ISAMPLE__MAT_MAT971
  *Elset, elset=ASSEMBLY_ISAMPLE__MAT_MAT972
  *Elset, elset=ASSEMBLY_ISAMPLE__MAT_MAT973
  *Elset, elset=ASSEMBLY_ISAMPLE__MAT_MAT974
  *Elset, elset=ASSEMBLY_ISAMPLE__MAT_MAT975
  *Elset, elset=ASSEMBLY_ISAMPLE__MAT_MAT976
  *Elset, elset=ASSEMBLY_ISAMPLE__MAT_MAT977
  *Elset, elset=ASSEMBLY_ISAMPLE__MAT_MAT978
  *Elset, elset=ASSEMBLY_ISAMPLE__MAT_MAT979
  *Elset, elset=ASSEMBLY_ISAMPLE__MAT_MAT98
  *Elset, elset=ASSEMBLY_ISAMPLE__MAT_MAT980
  *Elset, elset=ASSEMBLY_ISAMPLE__MAT_MAT981
  *Elset, elset=ASSEMBLY_ISAMPLE__MAT_MAT982
  *Elset, elset=ASSEMBLY_ISAMPLE__MAT_MAT983
  *Elset, elset=ASSEMBLY_ISAMPLE__MAT_MAT984
  *Elset, elset=ASSEMBLY_ISAMPLE__MAT_MAT985
  *Elset, elset=ASSEMBLY_ISAMPLE__MAT_MAT986
  *Elset, elset=ASSEMBLY_ISAMPLE__MAT_MAT987
  *Elset, elset=ASSEMBLY_ISAMPLE__MAT_MAT988
  *Elset, elset=ASSEMBLY_ISAMPLE__MAT_MAT989
  *Elset, elset=ASSEMBLY_ISAMPLE__MAT_MAT99
  *Elset, elset=ASSEMBLY_ISAMPLE__MAT_MAT990
  *Elset, elset=ASSEMBLY_ISAMPLE__MAT_MAT991
  *Elset, elset=ASSEMBLY_ISAMPLE__MAT_MAT992
  *Elset, elset=ASSEMBLY_ISAMPLE__MAT_MAT993
  *Elset, elset=ASSEMBLY_ISAMPLE__MAT_MAT994
  *Elset, elset=ASSEMBLY_ISAMPLE__MAT_MAT995
  *Elset, elset=ASSEMBLY_ISAMPLE__MAT_MAT996
  *Elset, elset=ASSEMBLY_ISAMPLE__MAT_MAT997
  *Elset, elset=ASSEMBLY_ISAMPLE__MAT_MAT998
  *Elset, elset=ASSEMBLY_ISAMPLE__MAT_MAT999
  *material, name=MAT1
  *elastic
  *plastic
  *material, name=MAT2
  *elastic
  *plastic
  *material, name=MAT3
  *elastic
  *plastic
  *material, name=MAT4
  *elastic
  *plastic
  *material, name=MAT5
  *elastic
  *plastic
  *material, name=MAT6
  *elastic
  *plastic
  *material, name=MAT7
  *elastic
  *plastic
  *material, name=MAT8
  *elastic
  *plastic
  *material, name=MAT9
  *elastic
  *plastic
  *material, name=MAT10
  *elastic
  *plastic
  *material, name=MAT11
  *elastic
  *plastic
  *material, name=MAT12
  *elastic
  *plastic
  *material, name=MAT13
  *elastic
  *plastic
  *material, name=MAT14
  *elastic
  *plastic
  *material, name=MAT15
  *elastic
  *plastic
  *material, name=MAT16
  *elastic
  *plastic
  *material, name=MAT17
  *elastic
  *plastic
  *material, name=MAT18
  *elastic
  *plastic
  *material, name=MAT19
  *elastic
  *plastic
  *material, name=MAT20
  *elastic
  *plastic
  *material, name=MAT21
  *elastic
  *plastic
  *material, name=MAT22
  *elastic
  *plastic
  *material, name=MAT23
  *elastic
  *plastic
  *material, name=MAT24
  *elastic
  *plastic
  *material, name=MAT25
  *elastic
  *plastic
  *material, name=MAT26
  *elastic
  *plastic
  *material, name=MAT27
  *elastic
  *plastic
  *material, name=MAT28
  *elastic
  *plastic
  *material, name=MAT29
  *elastic
  *plastic
  *material, name=MAT30
  *elastic
  *plastic
  *material, name=MAT31
  *elastic
  *plastic
  *material, name=MAT32
  *elastic
  *plastic
  *material, name=MAT33
  *elastic
  *plastic
  *material, name=MAT34
  *elastic
  *plastic
  *material, name=MAT35
  *elastic
  *plastic
  *material, name=MAT36
  *elastic
  *plastic
  *material, name=MAT37
  *elastic
  *plastic
  *material, name=MAT38
  *elastic
  *plastic
  *material, name=MAT39
  *elastic
  *plastic
  *material, name=MAT40
  *elastic
  *plastic
  *material, name=MAT41
  *elastic
  *plastic
  *material, name=MAT42
  *elastic
  *plastic
  *material, name=MAT43
  *elastic
  *plastic
  *material, name=MAT44
  *elastic
  *plastic
  *material, name=MAT45
  *elastic
  *plastic
  *material, name=MAT46
  *elastic
  *plastic
  *material, name=MAT47
  *elastic
  *plastic
  *material, name=MAT48
  *elastic
  *plastic
  *material, name=MAT49
  *elastic
  *plastic
  *material, name=MAT50
  *elastic
  *plastic
  *material, name=MAT51
  *elastic
  *plastic
  *material, name=MAT52
  *elastic
  *plastic
  *material, name=MAT53
  *elastic
  *plastic
  *material, name=MAT54
  *elastic
  *plastic
  *material, name=MAT55
  *elastic
  *plastic
  *material, name=MAT56
  *elastic
  *plastic
  *material, name=MAT57
  *elastic
  *plastic
  *material, name=MAT58
  *elastic
  *plastic
  *material, name=MAT59
  *elastic
  *plastic
  *material, name=MAT60
  *elastic
  *plastic
  *material, name=MAT61
  *elastic
  *plastic
  *material, name=MAT62
  *elastic
  *plastic
  *material, name=MAT63
  *elastic
  *plastic
  *material, name=MAT64
  *elastic
  *plastic
  *material, name=MAT65
  *elastic
  *plastic
  *material, name=MAT66
  *elastic
  *plastic
  *material, name=MAT67
  *elastic
  *plastic
  *material, name=MAT68
  *elastic
  *plastic
  *material, name=MAT69
  *elastic
  *plastic
  *material, name=MAT70
  *elastic
  *plastic
  *material, name=MAT71
  *elastic
  *plastic
  *material, name=MAT72
  *elastic
  *plastic
  *material, name=MAT73
  *elastic
  *plastic
  *material, name=MAT74
  *elastic
  *plastic
  *material, name=MAT75
  *elastic
  *plastic
  *material, name=MAT76
  *elastic
  *plastic
  *material, name=MAT77
  *elastic
  *plastic
  *material, name=MAT78
  *elastic
  *plastic
  *material, name=MAT79
  *elastic
  *plastic
  *material, name=MAT80
  *elastic
  *plastic
  *material, name=MAT81
  *elastic
  *plastic
  *material, name=MAT82
  *elastic
  *plastic
  *material, name=MAT83
  *elastic
  *plastic
  *material, name=MAT84
  *elastic
  *plastic
  *material, name=MAT85
  *elastic
  *plastic
  *material, name=MAT86
  *elastic
  *plastic
  *material, name=MAT87
  *elastic
  *plastic
  *material, name=MAT88
  *elastic
  *plastic
  *material, name=MAT89
  *elastic
  *plastic
  *material, name=MAT90
  *elastic
  *plastic
  *material, name=MAT91
  *elastic
  *plastic
  *material, name=MAT92
  *elastic
  *plastic
  *material, name=MAT93
  *elastic
  *plastic
  *material, name=MAT94
  *elastic
  *plastic
  *material, name=MAT95
  *elastic
  *plastic
  *material, name=MAT96
  *elastic
  *plastic
  *material, name=MAT97
  *elastic
  *plastic
  *material, name=MAT98
  *elastic
  *plastic
  *material, name=MAT99
  *elastic
  *plastic
  *material, name=MAT100
  *elastic
  *plastic
  *material, name=MAT101
  *elastic
  *plastic
  *material, name=MAT102
  *elastic
  *plastic
  *material, name=MAT103
  *elastic
  *plastic
  *material, name=MAT104
  *elastic
  *plastic
  *material, name=MAT105
  *elastic
  *plastic
  *material, name=MAT106
  *elastic
  *plastic
  *material, name=MAT107
  *elastic
  *plastic
  *material, name=MAT108
  *elastic
  *plastic
  *material, name=MAT109
  *elastic
  *plastic
  *material, name=MAT110
  *elastic
  *plastic
  *material, name=MAT111
  *elastic
  *plastic
  *material, name=MAT112
  *elastic
  *plastic
  *material, name=MAT113
  *elastic
  *plastic
  *material, name=MAT114
  *elastic
  *plastic
  *material, name=MAT115
  *elastic
  *plastic
  *material, name=MAT116
  *elastic
  *plastic
  *material, name=MAT117
  *elastic
  *plastic
  *material, name=MAT118
  *elastic
  *plastic
  *material, name=MAT119
  *elastic
  *plastic
  *material, name=MAT120
  *elastic
  *plastic
  *material, name=MAT121
  *elastic
  *plastic
  *material, name=MAT122
  *elastic
  *plastic
  *material, name=MAT123
  *elastic
  *plastic
  *material, name=MAT124
  *elastic
  *plastic
  *material, name=MAT125
  *elastic
  *plastic
  *material, name=MAT126
  *elastic
  *plastic
  *material, name=MAT127
  *elastic
  *plastic
  *material, name=MAT128
  *elastic
  *plastic
  *material, name=MAT129
  *elastic
  *plastic
  *material, name=MAT130
  *elastic
  *plastic
  *material, name=MAT131
  *elastic
  *plastic
  *material, name=MAT132
  *elastic
  *plastic
  *material, name=MAT133
  *elastic
  *plastic
  *material, name=MAT134
  *elastic
  *plastic
  *material, name=MAT135
  *elastic
  *plastic
  *material, name=MAT136
  *elastic
  *plastic
  *material, name=MAT137
  *elastic
  *plastic
  *material, name=MAT138
  *elastic
  *plastic
  *material, name=MAT139
  *elastic
  *plastic
  *material, name=MAT140
  *elastic
  *plastic
  *material, name=MAT141
  *elastic
  *plastic
  *material, name=MAT142
  *elastic
  *plastic
  *material, name=MAT143
  *elastic
  *plastic
  *material, name=MAT144
  *elastic
  *plastic
  *material, name=MAT145
  *elastic
  *plastic
  *material, name=MAT146
  *elastic
  *plastic
  *material, name=MAT147
  *elastic
  *plastic
  *material, name=MAT148
  *elastic
  *plastic
  *material, name=MAT149
  *elastic
  *plastic
  *material, name=MAT150
  *elastic
  *plastic
  *material, name=MAT151
  *elastic
  *plastic
  *material, name=MAT152
  *elastic
  *plastic
  *material, name=MAT153
  *elastic
  *plastic
  *material, name=MAT154
  *elastic
  *plastic
  *material, name=MAT155
  *elastic
  *plastic
  *material, name=MAT156
  *elastic
  *plastic
  *material, name=MAT157
  *elastic
  *plastic
  *material, name=MAT158
  *elastic
  *plastic
  *material, name=MAT159
  *elastic
  *plastic
  *material, name=MAT160
  *elastic
  *plastic
  *material, name=MAT161
  *elastic
  *plastic
  *material, name=MAT162
  *elastic
  *plastic
  *material, name=MAT163
  *elastic
  *plastic
  *material, name=MAT164
  *elastic
  *plastic
  *material, name=MAT165
  *elastic
  *plastic
  *material, name=MAT166
  *elastic
  *plastic
  *material, name=MAT167
  *elastic
  *plastic
  *material, name=MAT168
  *elastic
  *plastic
  *material, name=MAT169
  *elastic
  *plastic
  *material, name=MAT170
  *elastic
  *plastic
  *material, name=MAT171
  *elastic
  *plastic
  *material, name=MAT172
  *elastic
  *plastic
  *material, name=MAT173
  *elastic
  *plastic
  *material, name=MAT174
  *elastic
  *plastic
  *material, name=MAT175
  *elastic
  *plastic
  *material, name=MAT176
  *elastic
  *plastic
  *material, name=MAT177
  *elastic
  *plastic
  *material, name=MAT178
  *elastic
  *plastic
  *material, name=MAT179
  *elastic
  *plastic
  *material, name=MAT180
  *elastic
  *plastic
  *material, name=MAT181
  *elastic
  *plastic
  *material, name=MAT182
  *elastic
  *plastic
  *material, name=MAT183
  *elastic
  *plastic
  *material, name=MAT184
  *elastic
  *plastic
  *material, name=MAT185
  *elastic
  *plastic
  *material, name=MAT186
  *elastic
  *plastic
  *material, name=MAT187
  *elastic
  *plastic
  *material, name=MAT188
  *elastic
  *plastic
  *material, name=MAT189
  *elastic
  *plastic
  *material, name=MAT190
  *elastic
  *plastic
  *material, name=MAT191
  *elastic
  *plastic
  *material, name=MAT192
  *elastic
  *plastic
  *material, name=MAT193
  *elastic
  *plastic
  *material, name=MAT194
  *elastic
  *plastic
  *material, name=MAT195
  *elastic
  *plastic
  *material, name=MAT196
  *elastic
  *plastic
  *material, name=MAT197
  *elastic
  *plastic
  *material, name=MAT198
  *elastic
  *plastic
  *material, name=MAT199
  *elastic
  *plastic
  *material, name=MAT200
  *elastic
  *plastic
  *material, name=MAT201
  *elastic
  *plastic
  *material, name=MAT202
  *elastic
  *plastic
  *material, name=MAT203
  *elastic
  *plastic
  *material, name=MAT204
  *elastic
  *plastic
  *material, name=MAT205
  *elastic
  *plastic
  *material, name=MAT206
  *elastic
  *plastic
  *material, name=MAT207
  *elastic
  *plastic
  *material, name=MAT208
  *elastic
  *plastic
  *material, name=MAT209
  *elastic
  *plastic
  *material, name=MAT210
  *elastic
  *plastic
  *material, name=MAT211
  *elastic
  *plastic
  *material, name=MAT212
  *elastic
  *plastic
  *material, name=MAT213
  *elastic
  *plastic
  *material, name=MAT214
  *elastic
  *plastic
  *material, name=MAT215
  *elastic
  *plastic
  *material, name=MAT216
  *elastic
  *plastic
  *material, name=MAT217
  *elastic
  *plastic
  *material, name=MAT218
  *elastic
  *plastic
  *material, name=MAT219
  *elastic
  *plastic
  *material, name=MAT220
  *elastic
  *plastic
  *material, name=MAT221
  *elastic
  *plastic
  *material, name=MAT222
  *elastic
  *plastic
  *material, name=MAT223
  *elastic
  *plastic
  *material, name=MAT224
  *elastic
  *plastic
  *material, name=MAT225
  *elastic
  *plastic
  *material, name=MAT226
  *elastic
  *plastic
  *material, name=MAT227
  *elastic
  *plastic
  *material, name=MAT228
  *elastic
  *plastic
  *material, name=MAT229
  *elastic
  *plastic
  *material, name=MAT230
  *elastic
  *plastic
  *material, name=MAT231
  *elastic
  *plastic
  *material, name=MAT232
  *elastic
  *plastic
  *material, name=MAT233
  *elastic
  *plastic
  *material, name=MAT234
  *elastic
  *plastic
  *material, name=MAT235
  *elastic
  *plastic
  *material, name=MAT236
  *elastic
  *plastic
  *material, name=MAT237
  *elastic
  *plastic
  *material, name=MAT238
  *elastic
  *plastic
  *material, name=MAT239
  *elastic
  *plastic
  *material, name=MAT240
  *elastic
  *plastic
  *material, name=MAT241
  *elastic
  *plastic
  *material, name=MAT242
  *elastic
  *plastic
  *material, name=MAT243
  *elastic
  *plastic
  *material, name=MAT244
  *elastic
  *plastic
  *material, name=MAT245
  *elastic
  *plastic
  *material, name=MAT246
  *elastic
  *plastic
  *material, name=MAT247
  *elastic
  *plastic
  *material, name=MAT248
  *elastic
  *plastic
  *material, name=MAT249
  *elastic
  *plastic
  *material, name=MAT250
  *elastic
  *plastic
  *material, name=MAT251
  *elastic
  *plastic
  *material, name=MAT252
  *elastic
  *plastic
  *material, name=MAT253
  *elastic
  *plastic
  *material, name=MAT254
  *elastic
  *plastic
  *material, name=MAT255
  *elastic
  *plastic
  *material, name=MAT256
  *elastic
  *plastic
  *material, name=MAT257
  *elastic
  *plastic
  *material, name=MAT258
  *elastic
  *plastic
  *material, name=MAT259
  *elastic
  *plastic
  *material, name=MAT260
  *elastic
  *plastic
  *material, name=MAT261
  *elastic
  *plastic
  *material, name=MAT262
  *elastic
  *plastic
  *material, name=MAT263
  *elastic
  *plastic
  *material, name=MAT264
  *elastic
  *plastic
  *material, name=MAT265
  *elastic
  *plastic
  *material, name=MAT266
  *elastic
  *plastic
  *material, name=MAT267
  *elastic
  *plastic
  *material, name=MAT268
  *elastic
  *plastic
  *material, name=MAT269
  *elastic
  *plastic
  *material, name=MAT270
  *elastic
  *plastic
  *material, name=MAT271
  *elastic
  *plastic
  *material, name=MAT272
  *elastic
  *plastic
  *material, name=MAT273
  *elastic
  *plastic
  *material, name=MAT274
  *elastic
  *plastic
  *material, name=MAT275
  *elastic
  *plastic
  *material, name=MAT276
  *elastic
  *plastic
  *material, name=MAT277
  *elastic
  *plastic
  *material, name=MAT278
  *elastic
  *plastic
  *material, name=MAT279
  *elastic
  *plastic
  *material, name=MAT280
  *elastic
  *plastic
  *material, name=MAT281
  *elastic
  *plastic
  *material, name=MAT282
  *elastic
  *plastic
  *material, name=MAT283
  *elastic
  *plastic
  *material, name=MAT284
  *elastic
  *plastic
  *material, name=MAT285
  *elastic
  *plastic
  *material, name=MAT286
  *elastic
  *plastic
  *material, name=MAT287
  *elastic
  *plastic
  *material, name=MAT288
  *elastic
  *plastic
  *material, name=MAT289
  *elastic
  *plastic
  *material, name=MAT290
  *elastic
  *plastic
  *material, name=MAT291
  *elastic
  *plastic
  *material, name=MAT292
  *elastic
  *plastic
  *material, name=MAT293
  *elastic
  *plastic
  *material, name=MAT294
  *elastic
  *plastic
  *material, name=MAT295
  *elastic
  *plastic
  *material, name=MAT296
  *elastic
  *plastic
  *material, name=MAT297
  *elastic
  *plastic
  *material, name=MAT298
  *elastic
  *plastic
  *material, name=MAT299
  *elastic
  *plastic
  *material, name=MAT300
  *elastic
  *plastic
  *material, name=MAT301
  *elastic
  *plastic
  *material, name=MAT302
  *elastic
  *plastic
  *material, name=MAT303
  *elastic
  *plastic
  *material, name=MAT304
  *elastic
  *plastic
  *material, name=MAT305
  *elastic
  *plastic
  *material, name=MAT306
  *elastic
  *plastic
  *material, name=MAT307
  *elastic
  *plastic
  *material, name=MAT308
  *elastic
  *plastic
  *material, name=MAT309
  *elastic
  *plastic
  *material, name=MAT310
  *elastic
  *plastic
  *material, name=MAT311
  *elastic
  *plastic
  *material, name=MAT312
  *elastic
  *plastic
  *material, name=MAT313
  *elastic
  *plastic
  *material, name=MAT314
  *elastic
  *plastic
  *material, name=MAT315
  *elastic
  *plastic
  *material, name=MAT316
  *elastic
  *plastic
  *material, name=MAT317
  *elastic
  *plastic
  *material, name=MAT318
  *elastic
  *plastic
  *material, name=MAT319
  *elastic
  *plastic
  *material, name=MAT320
  *elastic
  *plastic
  *material, name=MAT321
  *elastic
  *plastic
  *material, name=MAT322
  *elastic
  *plastic
  *material, name=MAT323
  *elastic
  *plastic
  *material, name=MAT324
  *elastic
  *plastic
  *material, name=MAT325
  *elastic
  *plastic
  *material, name=MAT326
  *elastic
  *plastic
  *material, name=MAT327
  *elastic
  *plastic
  *material, name=MAT328
  *elastic
  *plastic
  *material, name=MAT329
  *elastic
  *plastic
  *material, name=MAT330
  *elastic
  *plastic
  *material, name=MAT331
  *elastic
  *plastic
  *material, name=MAT332
  *elastic
  *plastic
  *material, name=MAT333
  *elastic
  *plastic
  *material, name=MAT334
  *elastic
  *plastic
  *material, name=MAT335
  *elastic
  *plastic
  *material, name=MAT336
  *elastic
  *plastic
  *material, name=MAT337
  *elastic
  *plastic
  *material, name=MAT338
  *elastic
  *plastic
  *material, name=MAT339
  *elastic
  *plastic
  *material, name=MAT340
  *elastic
  *plastic
  *material, name=MAT341
  *elastic
  *plastic
  *material, name=MAT342
  *elastic
  *plastic
  *material, name=MAT343
  *elastic
  *plastic
  *material, name=MAT344
  *elastic
  *plastic
  *material, name=MAT345
  *elastic
  *plastic
  *material, name=MAT346
  *elastic
  *plastic
  *material, name=MAT347
  *elastic
  *plastic
  *material, name=MAT348
  *elastic
  *plastic
  *material, name=MAT349
  *elastic
  *plastic
  *material, name=MAT350
  *elastic
  *plastic
  *material, name=MAT351
  *elastic
  *plastic
  *material, name=MAT352
  *elastic
  *plastic
  *material, name=MAT353
  *elastic
  *plastic
  *material, name=MAT354
  *elastic
  *plastic
  *material, name=MAT355
  *elastic
  *plastic
  *material, name=MAT356
  *elastic
  *plastic
  *material, name=MAT357
  *elastic
  *plastic
  *material, name=MAT358
  *elastic
  *plastic
  *material, name=MAT359
  *elastic
  *plastic
  *material, name=MAT360
  *elastic
  *plastic
  *material, name=MAT361
  *elastic
  *plastic
  *material, name=MAT362
  *elastic
  *plastic
  *material, name=MAT363
  *elastic
  *plastic
  *material, name=MAT364
  *elastic
  *plastic
  *material, name=MAT365
  *elastic
  *plastic
  *material, name=MAT366
  *elastic
  *plastic
  *material, name=MAT367
  *elastic
  *plastic
  *material, name=MAT368
  *elastic
  *plastic
  *material, name=MAT369
  *elastic
  *plastic
  *material, name=MAT370
  *elastic
  *plastic
  *material, name=MAT371
  *elastic
  *plastic
  *material, name=MAT372
  *elastic
  *plastic
  *material, name=MAT373
  *elastic
  *plastic
  *material, name=MAT374
  *elastic
  *plastic
  *material, name=MAT375
  *elastic
  *plastic
  *material, name=MAT376
  *elastic
  *plastic
  *material, name=MAT377
  *elastic
  *plastic
  *material, name=MAT378
  *elastic
  *plastic
  *material, name=MAT379
  *elastic
  *plastic
  *material, name=MAT380
  *elastic
  *plastic
  *material, name=MAT381
  *elastic
  *plastic
  *material, name=MAT382
  *elastic
  *plastic
  *material, name=MAT383
  *elastic
  *plastic
  *material, name=MAT384
  *elastic
  *plastic
  *material, name=MAT385
  *elastic
  *plastic
  *material, name=MAT386
  *elastic
  *plastic
  *material, name=MAT387
  *elastic
  *plastic
  *material, name=MAT388
  *elastic
  *plastic
  *material, name=MAT389
  *elastic
  *plastic
  *material, name=MAT390
  *elastic
  *plastic
  *material, name=MAT391
  *elastic
  *plastic
  *material, name=MAT392
  *elastic
  *plastic
  *material, name=MAT393
  *elastic
  *plastic
  *material, name=MAT394
  *elastic
  *plastic
  *material, name=MAT395
  *elastic
  *plastic
  *material, name=MAT396
  *elastic
  *plastic
  *material, name=MAT397
  *elastic
  *plastic
  *material, name=MAT398
  *elastic
  *plastic
  *material, name=MAT399
  *elastic
  *plastic
  *material, name=MAT400
  *elastic
  *plastic
  *material, name=MAT401
  *elastic
  *plastic
  *material, name=MAT402
  *elastic
  *plastic
  *material, name=MAT403
  *elastic
  *plastic
  *material, name=MAT404
  *elastic
  *plastic
  *material, name=MAT405
  *elastic
  *plastic
  *material, name=MAT406
  *elastic
  *plastic
  *material, name=MAT407
  *elastic
  *plastic
  *material, name=MAT408
  *elastic
  *plastic
  *material, name=MAT409
  *elastic
  *plastic
  *material, name=MAT410
  *elastic
  *plastic
  *material, name=MAT411
  *elastic
  *plastic
  *material, name=MAT412
  *elastic
  *plastic
  *material, name=MAT413
  *elastic
  *plastic
  *material, name=MAT414
  *elastic
  *plastic
  *material, name=MAT415
  *elastic
  *plastic
  *material, name=MAT416
  *elastic
  *plastic
  *material, name=MAT417
  *elastic
  *plastic
  *material, name=MAT418
  *elastic
  *plastic
  *material, name=MAT419
  *elastic
  *plastic
  *material, name=MAT420
  *elastic
  *plastic
  *material, name=MAT421
  *elastic
  *plastic
  *material, name=MAT422
  *elastic
  *plastic
  *material, name=MAT423
  *elastic
  *plastic
  *material, name=MAT424
  *elastic
  *plastic
  *material, name=MAT425
  *elastic
  *plastic
  *material, name=MAT426
  *elastic
  *plastic
  *material, name=MAT427
  *elastic
  *plastic
  *material, name=MAT428
  *elastic
  *plastic
  *material, name=MAT429
  *elastic
  *plastic
  *material, name=MAT430
  *elastic
  *plastic
  *material, name=MAT431
  *elastic
  *plastic
  *material, name=MAT432
  *elastic
  *plastic
  *material, name=MAT433
  *elastic
  *plastic
  *material, name=MAT434
  *elastic
  *plastic
  *material, name=MAT435
  *elastic
  *plastic
  *material, name=MAT436
  *elastic
  *plastic
  *material, name=MAT437
  *elastic
  *plastic
  *material, name=MAT438
  *elastic
  *plastic
  *material, name=MAT439
  *elastic
  *plastic
  *material, name=MAT440
  *elastic
  *plastic
  *material, name=MAT441
  *elastic
  *plastic
  *material, name=MAT442
  *elastic
  *plastic
  *material, name=MAT443
  *elastic
  *plastic
  *material, name=MAT444
  *elastic
  *plastic
  *material, name=MAT445
  *elastic
  *plastic
  *material, name=MAT446
  *elastic
  *plastic
  *material, name=MAT447
  *elastic
  *plastic
  *material, name=MAT448
  *elastic
  *plastic
  *material, name=MAT449
  *elastic
  *plastic
  *material, name=MAT450
  *elastic
  *plastic
  *material, name=MAT451
  *elastic
  *plastic
  *material, name=MAT452
  *elastic
  *plastic
  *material, name=MAT453
  *elastic
  *plastic
  *material, name=MAT454
  *elastic
  *plastic
  *material, name=MAT455
  *elastic
  *plastic
  *material, name=MAT456
  *elastic
  *plastic
  *material, name=MAT457
  *elastic
  *plastic
  *material, name=MAT458
  *elastic
  *plastic
  *material, name=MAT459
  *elastic
  *plastic
  *material, name=MAT460
  *elastic
  *plastic
  *material, name=MAT461
  *elastic
  *plastic
  *material, name=MAT462
  *elastic
  *plastic
  *material, name=MAT463
  *elastic
  *plastic
  *material, name=MAT464
  *elastic
  *plastic
  *material, name=MAT465
  *elastic
  *plastic
  *material, name=MAT466
  *elastic
  *plastic
  *material, name=MAT467
  *elastic
  *plastic
  *material, name=MAT468
  *elastic
  *plastic
  *material, name=MAT469
  *elastic
  *plastic
  *material, name=MAT470
  *elastic
  *plastic
  *material, name=MAT471
  *elastic
  *plastic
  *material, name=MAT472
  *elastic
  *plastic
  *material, name=MAT473
  *elastic
  *plastic
  *material, name=MAT474
  *elastic
  *plastic
  *material, name=MAT475
  *elastic
  *plastic
  *material, name=MAT476
  *elastic
  *plastic
  *material, name=MAT477
  *elastic
  *plastic
  *material, name=MAT478
  *elastic
  *plastic
  *material, name=MAT479
  *elastic
  *plastic
  *material, name=MAT480
  *elastic
  *plastic
  *material, name=MAT481
  *elastic
  *plastic
  *material, name=MAT482
  *elastic
  *plastic
  *material, name=MAT483
  *elastic
  *plastic
  *material, name=MAT484
  *elastic
  *plastic
  *material, name=MAT485
  *elastic
  *plastic
  *material, name=MAT486
  *elastic
  *plastic
  *material, name=MAT487
  *elastic
  *plastic
  *material, name=MAT488
  *elastic
  *plastic
  *material, name=MAT489
  *elastic
  *plastic
  *material, name=MAT490
  *elastic
  *plastic
  *material, name=MAT491
  *elastic
  *plastic
  *material, name=MAT492
  *elastic
  *plastic
  *material, name=MAT493
  *elastic
  *plastic
  *material, name=MAT494
  *elastic
  *plastic
  *material, name=MAT495
  *elastic
  *plastic
  *material, name=MAT496
  *elastic
  *plastic
  *material, name=MAT497
  *elastic
  *plastic
  *material, name=MAT498
  *elastic
  *plastic
  *material, name=MAT499
  *elastic
  *plastic
  *material, name=MAT500
  *elastic
  *plastic
  *material, name=MAT501
  *elastic
  *plastic
  *material, name=MAT502
  *elastic
  *plastic
  *material, name=MAT503
  *elastic
  *plastic
  *material, name=MAT504
  *elastic
  *plastic
  *material, name=MAT505
  *elastic
  *plastic
  *material, name=MAT506
  *elastic
  *plastic
  *material, name=MAT507
  *elastic
  *plastic
  *material, name=MAT508
  *elastic
  *plastic
  *material, name=MAT509
  *elastic
  *plastic
  *material, name=MAT510
  *elastic
  *plastic
  *material, name=MAT511
  *elastic
  *plastic
  *material, name=MAT512
  *elastic
  *plastic
  *material, name=MAT513
  *elastic
  *plastic
  *material, name=MAT514
  *elastic
  *plastic
  *material, name=MAT515
  *elastic
  *plastic
  *material, name=MAT516
  *elastic
  *plastic
  *material, name=MAT517
  *elastic
  *plastic
  *material, name=MAT518
  *elastic
  *plastic
  *material, name=MAT519
  *elastic
  *plastic
  *material, name=MAT520
  *elastic
  *plastic
  *material, name=MAT521
  *elastic
  *plastic
  *material, name=MAT522
  *elastic
  *plastic
  *material, name=MAT523
  *elastic
  *plastic
  *material, name=MAT524
  *elastic
  *plastic
  *material, name=MAT525
  *elastic
  *plastic
  *material, name=MAT526
  *elastic
  *plastic
  *material, name=MAT527
  *elastic
  *plastic
  *material, name=MAT528
  *elastic
  *plastic
  *material, name=MAT529
  *elastic
  *plastic
  *material, name=MAT530
  *elastic
  *plastic
  *material, name=MAT531
  *elastic
  *plastic
  *material, name=MAT532
  *elastic
  *plastic
  *material, name=MAT533
  *elastic
  *plastic
  *material, name=MAT534
  *elastic
  *plastic
  *material, name=MAT535
  *elastic
  *plastic
  *material, name=MAT536
  *elastic
  *plastic
  *material, name=MAT537
  *elastic
  *plastic
  *material, name=MAT538
  *elastic
  *plastic
  *material, name=MAT539
  *elastic
  *plastic
  *material, name=MAT540
  *elastic
  *plastic
  *material, name=MAT541
  *elastic
  *plastic
  *material, name=MAT542
  *elastic
  *plastic
  *material, name=MAT543
  *elastic
  *plastic
  *material, name=MAT544
  *elastic
  *plastic
  *material, name=MAT545
  *elastic
  *plastic
  *material, name=MAT546
  *elastic
  *plastic
  *material, name=MAT547
  *elastic
  *plastic
  *material, name=MAT548
  *elastic
  *plastic
  *material, name=MAT549
  *elastic
  *plastic
  *material, name=MAT550
  *elastic
  *plastic
  *material, name=MAT551
  *elastic
  *plastic
  *material, name=MAT552
  *elastic
  *plastic
  *material, name=MAT553
  *elastic
  *plastic
  *material, name=MAT554
  *elastic
  *plastic
  *material, name=MAT555
  *elastic
  *plastic
  *material, name=MAT556
  *elastic
  *plastic
  *material, name=MAT557
  *elastic
  *plastic
  *material, name=MAT558
  *elastic
  *plastic
  *material, name=MAT559
  *elastic
  *plastic
  *material, name=MAT560
  *elastic
  *plastic
  *material, name=MAT561
  *elastic
  *plastic
  *material, name=MAT562
  *elastic
  *plastic
  *material, name=MAT563
  *elastic
  *plastic
  *material, name=MAT564
  *elastic
  *plastic
  *material, name=MAT565
  *elastic
  *plastic
  *material, name=MAT566
  *elastic
  *plastic
  *material, name=MAT567
  *elastic
  *plastic
  *material, name=MAT568
  *elastic
  *plastic
  *material, name=MAT569
  *elastic
  *plastic
  *material, name=MAT570
  *elastic
  *plastic
  *material, name=MAT571
  *elastic
  *plastic
  *material, name=MAT572
  *elastic
  *plastic
  *material, name=MAT573
  *elastic
  *plastic
  *material, name=MAT574
  *elastic
  *plastic
  *material, name=MAT575
  *elastic
  *plastic
  *material, name=MAT576
  *elastic
  *plastic
  *material, name=MAT577
  *elastic
  *plastic
  *material, name=MAT578
  *elastic
  *plastic
  *material, name=MAT579
  *elastic
  *plastic
  *material, name=MAT580
  *elastic
  *plastic
  *material, name=MAT581
  *elastic
  *plastic
  *material, name=MAT582
  *elastic
  *plastic
  *material, name=MAT583
  *elastic
  *plastic
  *material, name=MAT584
  *elastic
  *plastic
  *material, name=MAT585
  *elastic
  *plastic
  *material, name=MAT586
  *elastic
  *plastic
  *material, name=MAT587
  *elastic
  *plastic
  *material, name=MAT588
  *elastic
  *plastic
  *material, name=MAT589
  *elastic
  *plastic
  *material, name=MAT590
  *elastic
  *plastic
  *material, name=MAT591
  *elastic
  *plastic
  *material, name=MAT592
  *elastic
  *plastic
  *material, name=MAT593
  *elastic
  *plastic
  *material, name=MAT594
  *elastic
  *plastic
  *material, name=MAT595
  *elastic
  *plastic
  *material, name=MAT596
  *elastic
  *plastic
  *material, name=MAT597
  *elastic
  *plastic
  *material, name=MAT598
  *elastic
  *plastic
  *material, name=MAT599
  *elastic
  *plastic
  *material, name=MAT600
  *elastic
  *plastic
  *material, name=MAT601
  *elastic
  *plastic
  *material, name=MAT602
  *elastic
  *plastic
  *material, name=MAT603
  *elastic
  *plastic
  *material, name=MAT604
  *elastic
  *plastic
  *material, name=MAT605
  *elastic
  *plastic
  *material, name=MAT606
  *elastic
  *plastic
  *material, name=MAT607
  *elastic
  *plastic
  *material, name=MAT608
  *elastic
  *plastic
  *material, name=MAT609
  *elastic
  *plastic
  *material, name=MAT610
  *elastic
  *plastic
  *material, name=MAT611
  *elastic
  *plastic
  *material, name=MAT612
  *elastic
  *plastic
  *material, name=MAT613
  *elastic
  *plastic
  *material, name=MAT614
  *elastic
  *plastic
  *material, name=MAT615
  *elastic
  *plastic
  *material, name=MAT616
  *elastic
  *plastic
  *material, name=MAT617
  *elastic
  *plastic
  *material, name=MAT618
  *elastic
  *plastic
  *material, name=MAT619
  *elastic
  *plastic
  *material, name=MAT620
  *elastic
  *plastic
  *material, name=MAT621
  *elastic
  *plastic
  *material, name=MAT622
  *elastic
  *plastic
  *material, name=MAT623
  *elastic
  *plastic
  *material, name=MAT624
  *elastic
  *plastic
  *material, name=MAT625
  *elastic
  *plastic
  *material, name=MAT626
  *elastic
  *plastic
  *material, name=MAT627
  *elastic
  *plastic
  *material, name=MAT628
  *elastic
  *plastic
  *material, name=MAT629
  *elastic
  *plastic
  *material, name=MAT630
  *elastic
  *plastic
  *material, name=MAT631
  *elastic
  *plastic
  *material, name=MAT632
  *elastic
  *plastic
  *material, name=MAT633
  *elastic
  *plastic
  *material, name=MAT634
  *elastic
  *plastic
  *material, name=MAT635
  *elastic
  *plastic
  *material, name=MAT636
  *elastic
  *plastic
  *material, name=MAT637
  *elastic
  *plastic
  *material, name=MAT638
  *elastic
  *plastic
  *material, name=MAT639
  *elastic
  *plastic
  *material, name=MAT640
  *elastic
  *plastic
  *material, name=MAT641
  *elastic
  *plastic
  *material, name=MAT642
  *elastic
  *plastic
  *material, name=MAT643
  *elastic
  *plastic
  *material, name=MAT644
  *elastic
  *plastic
  *material, name=MAT645
  *elastic
  *plastic
  *material, name=MAT646
  *elastic
  *plastic
  *material, name=MAT647
  *elastic
  *plastic
  *material, name=MAT648
  *elastic
  *plastic
  *material, name=MAT649
  *elastic
  *plastic
  *material, name=MAT650
  *elastic
  *plastic
  *material, name=MAT651
  *elastic
  *plastic
  *material, name=MAT652
  *elastic
  *plastic
  *material, name=MAT653
  *elastic
  *plastic
  *material, name=MAT654
  *elastic
  *plastic
  *material, name=MAT655
  *elastic
  *plastic
  *material, name=MAT656
  *elastic
  *plastic
  *material, name=MAT657
  *elastic
  *plastic
[...]
  *solidsection, elset=ASSEMBLY_ISAMPLE__MAT_MAT821, material=MAT821
  *solidsection, elset=ASSEMBLY_ISAMPLE__MAT_MAT822, material=MAT822
  *solidsection, elset=ASSEMBLY_ISAMPLE__MAT_MAT823, material=MAT823
  *solidsection, elset=ASSEMBLY_ISAMPLE__MAT_MAT824, material=MAT824
  *solidsection, elset=ASSEMBLY_ISAMPLE__MAT_MAT825, material=MAT825
  *solidsection, elset=ASSEMBLY_ISAMPLE__MAT_MAT826, material=MAT826
  *solidsection, elset=ASSEMBLY_ISAMPLE__MAT_MAT827, material=MAT827
  *solidsection, elset=ASSEMBLY_ISAMPLE__MAT_MAT828, material=MAT828
  *solidsection, elset=ASSEMBLY_ISAMPLE__MAT_MAT829, material=MAT829
  *solidsection, elset=ASSEMBLY_ISAMPLE__MAT_MAT83, material=MAT83
  *solidsection, elset=ASSEMBLY_ISAMPLE__MAT_MAT830, material=MAT830
  *solidsection, elset=ASSEMBLY_ISAMPLE__MAT_MAT831, material=MAT831
  *solidsection, elset=ASSEMBLY_ISAMPLE__MAT_MAT832, material=MAT832
  *solidsection, elset=ASSEMBLY_ISAMPLE__MAT_MAT833, material=MAT833
  *solidsection, elset=ASSEMBLY_ISAMPLE__MAT_MAT834, material=MAT834
  *solidsection, elset=ASSEMBLY_ISAMPLE__MAT_MAT835, material=MAT835
  *solidsection, elset=ASSEMBLY_ISAMPLE__MAT_MAT836, material=MAT836
  *solidsection, elset=ASSEMBLY_ISAMPLE__MAT_MAT837, material=MAT837
  *solidsection, elset=ASSEMBLY_ISAMPLE__MAT_MAT838, material=MAT838
  *solidsection, elset=ASSEMBLY_ISAMPLE__MAT_MAT839, material=MAT839
  *solidsection, elset=ASSEMBLY_ISAMPLE__MAT_MAT84, material=MAT84
  *solidsection, elset=ASSEMBLY_ISAMPLE__MAT_MAT840, material=MAT840
  *solidsection, elset=ASSEMBLY_ISAMPLE__MAT_MAT841, material=MAT841
  *solidsection, elset=ASSEMBLY_ISAMPLE__MAT_MAT842, material=MAT842
  *solidsection, elset=ASSEMBLY_ISAMPLE__MAT_MAT843, material=MAT843
  *solidsection, elset=ASSEMBLY_ISAMPLE__MAT_MAT844, material=MAT844
  *solidsection, elset=ASSEMBLY_ISAMPLE__MAT_MAT845, material=MAT845
  *solidsection, elset=ASSEMBLY_ISAMPLE__MAT_MAT846, material=MAT846
  *solidsection, elset=ASSEMBLY_ISAMPLE__MAT_MAT847, material=MAT847
  *solidsection, elset=ASSEMBLY_ISAMPLE__MAT_MAT848, material=MAT848
  *solidsection, elset=ASSEMBLY_ISAMPLE__MAT_MAT849, material=MAT849
  *solidsection, elset=ASSEMBLY_ISAMPLE__MAT_MAT85, material=MAT85
  *solidsection, elset=ASSEMBLY_ISAMPLE__MAT_MAT850, material=MAT850
  *solidsection, elset=ASSEMBLY_ISAMPLE__MAT_MAT851, material=MAT851
  *solidsection, elset=ASSEMBLY_ISAMPLE__MAT_MAT852, material=MAT852
  *solidsection, elset=ASSEMBLY_ISAMPLE__MAT_MAT853, material=MAT853
  *solidsection, elset=ASSEMBLY_ISAMPLE__MAT_MAT854, material=MAT854
  *solidsection, elset=ASSEMBLY_ISAMPLE__MAT_MAT855, material=MAT855
  *solidsection, elset=ASSEMBLY_ISAMPLE__MAT_MAT856, material=MAT856
  *solidsection, elset=ASSEMBLY_ISAMPLE__MAT_MAT857, material=MAT857
  *solidsection, elset=ASSEMBLY_ISAMPLE__MAT_MAT858, material=MAT858
  *solidsection, elset=ASSEMBLY_ISAMPLE__MAT_MAT859, material=MAT859
  *solidsection, elset=ASSEMBLY_ISAMPLE__MAT_MAT86, material=MAT86
  *solidsection, elset=ASSEMBLY_ISAMPLE__MAT_MAT860, material=MAT860
  *solidsection, elset=ASSEMBLY_ISAMPLE__MAT_MAT861, material=MAT861
  *solidsection, elset=ASSEMBLY_ISAMPLE__MAT_MAT862, material=MAT862
  *solidsection, elset=ASSEMBLY_ISAMPLE__MAT_MAT863, material=MAT863
  *solidsection, elset=ASSEMBLY_ISAMPLE__MAT_MAT864, material=MAT864
  *solidsection, elset=ASSEMBLY_ISAMPLE__MAT_MAT865, material=MAT865
  *solidsection, elset=ASSEMBLY_ISAMPLE__MAT_MAT866, material=MAT866
  *solidsection, elset=ASSEMBLY_ISAMPLE__MAT_MAT867, material=MAT867
  *solidsection, elset=ASSEMBLY_ISAMPLE__MAT_MAT868, material=MAT868
  *solidsection, elset=ASSEMBLY_ISAMPLE__MAT_MAT869, material=MAT869
  *solidsection, elset=ASSEMBLY_ISAMPLE__MAT_MAT87, material=MAT87
  *solidsection, elset=ASSEMBLY_ISAMPLE__MAT_MAT870, material=MAT870
  *solidsection, elset=ASSEMBLY_ISAMPLE__MAT_MAT871, material=MAT871
  *solidsection, elset=ASSEMBLY_ISAMPLE__MAT_MAT872, material=MAT872
  *solidsection, elset=ASSEMBLY_ISAMPLE__MAT_MAT873, material=MAT873
  *solidsection, elset=ASSEMBLY_ISAMPLE__MAT_MAT874, material=MAT874
  *solidsection, elset=ASSEMBLY_ISAMPLE__MAT_MAT875, material=MAT875
  *solidsection, elset=ASSEMBLY_ISAMPLE__MAT_MAT876, material=MAT876
  *solidsection, elset=ASSEMBLY_ISAMPLE__MAT_MAT877, material=MAT877
  *solidsection, elset=ASSEMBLY_ISAMPLE__MAT_MAT878, material=MAT878
  *solidsection, elset=ASSEMBLY_ISAMPLE__MAT_MAT879, material=MAT879
  *solidsection, elset=ASSEMBLY_ISAMPLE__MAT_MAT88, material=MAT88
  *solidsection, elset=ASSEMBLY_ISAMPLE__MAT_MAT880, material=MAT880
  *solidsection, elset=ASSEMBLY_ISAMPLE__MAT_MAT881, material=MAT881
  *solidsection, elset=ASSEMBLY_ISAMPLE__MAT_MAT882, material=MAT882
  *solidsection, elset=ASSEMBLY_ISAMPLE__MAT_MAT883, material=MAT883
  *solidsection, elset=ASSEMBLY_ISAMPLE__MAT_MAT884, material=MAT884
  *solidsection, elset=ASSEMBLY_ISAMPLE__MAT_MAT885, material=MAT885
  *solidsection, elset=ASSEMBLY_ISAMPLE__MAT_MAT886, material=MAT886
  *solidsection, elset=ASSEMBLY_ISAMPLE__MAT_MAT887, material=MAT887
  *solidsection, elset=ASSEMBLY_ISAMPLE__MAT_MAT888, material=MAT888
  *solidsection, elset=ASSEMBLY_ISAMPLE__MAT_MAT889, material=MAT889
  *solidsection, elset=ASSEMBLY_ISAMPLE__MAT_MAT89, material=MAT89
  *solidsection, elset=ASSEMBLY_ISAMPLE__MAT_MAT890, material=MAT890
  *solidsection, elset=ASSEMBLY_ISAMPLE__MAT_MAT891, material=MAT891
  *solidsection, elset=ASSEMBLY_ISAMPLE__MAT_MAT892, material=MAT892
  *solidsection, elset=ASSEMBLY_ISAMPLE__MAT_MAT893, material=MAT893
  *solidsection, elset=ASSEMBLY_ISAMPLE__MAT_MAT894, material=MAT894
  *solidsection, elset=ASSEMBLY_ISAMPLE__MAT_MAT895, material=MAT895
  *solidsection, elset=ASSEMBLY_ISAMPLE__MAT_MAT896, material=MAT896
  *solidsection, elset=ASSEMBLY_ISAMPLE__MAT_MAT897, material=MAT897
  *solidsection, elset=ASSEMBLY_ISAMPLE__MAT_MAT898, material=MAT898
  *solidsection, elset=ASSEMBLY_ISAMPLE__MAT_MAT899, material=MAT899
  *solidsection, elset=ASSEMBLY_ISAMPLE__MAT_MAT9, material=MAT9
  *solidsection, elset=ASSEMBLY_ISAMPLE__MAT_MAT90, material=MAT90
  *solidsection, elset=ASSEMBLY_ISAMPLE__MAT_MAT900, material=MAT900
  *solidsection, elset=ASSEMBLY_ISAMPLE__MAT_MAT901, material=MAT901
  *solidsection, elset=ASSEMBLY_ISAMPLE__MAT_MAT902, material=MAT902
  *solidsection, elset=ASSEMBLY_ISAMPLE__MAT_MAT903, material=MAT903
  *solidsection, elset=ASSEMBLY_ISAMPLE__MAT_MAT904, material=MAT904
  *solidsection, elset=ASSEMBLY_ISAMPLE__MAT_MAT905, material=MAT905
  *solidsection, elset=ASSEMBLY_ISAMPLE__MAT_MAT906, material=MAT906
  *solidsection, elset=ASSEMBLY_ISAMPLE__MAT_MAT907, material=MAT907
  *solidsection, elset=ASSEMBLY_ISAMPLE__MAT_MAT908, material=MAT908
  *solidsection, elset=ASSEMBLY_ISAMPLE__MAT_MAT909, material=MAT909
  *solidsection, elset=ASSEMBLY_ISAMPLE__MAT_MAT91, material=MAT91
  *solidsection, elset=ASSEMBLY_ISAMPLE__MAT_MAT910, material=MAT910
  *solidsection, elset=ASSEMBLY_ISAMPLE__MAT_MAT911, material=MAT911
  *solidsection, elset=ASSEMBLY_ISAMPLE__MAT_MAT912, material=MAT912
  *solidsection, elset=ASSEMBLY_ISAMPLE__MAT_MAT913, material=MAT913
  *solidsection, elset=ASSEMBLY_ISAMPLE__MAT_MAT914, material=MAT914
  *solidsection, elset=ASSEMBLY_ISAMPLE__MAT_MAT915, material=MAT915
  *solidsection, elset=ASSEMBLY_ISAMPLE__MAT_MAT916, material=MAT916
  *solidsection, elset=ASSEMBLY_ISAMPLE__MAT_MAT917, material=MAT917
  *solidsection, elset=ASSEMBLY_ISAMPLE__MAT_MAT918, material=MAT918
  *solidsection, elset=ASSEMBLY_ISAMPLE__MAT_MAT919, material=MAT919
  *solidsection, elset=ASSEMBLY_ISAMPLE__MAT_MAT92, material=MAT92
  *solidsection, elset=ASSEMBLY_ISAMPLE__MAT_MAT920, material=MAT920
  *solidsection, elset=ASSEMBLY_ISAMPLE__MAT_MAT921, material=MAT921
  *solidsection, elset=ASSEMBLY_ISAMPLE__MAT_MAT922, material=MAT922
  *solidsection, elset=ASSEMBLY_ISAMPLE__MAT_MAT923, material=MAT923
  *solidsection, elset=ASSEMBLY_ISAMPLE__MAT_MAT924, material=MAT924
  *solidsection, elset=ASSEMBLY_ISAMPLE__MAT_MAT925, material=MAT925
  *solidsection, elset=ASSEMBLY_ISAMPLE__MAT_MAT926, material=MAT926
  *solidsection, elset=ASSEMBLY_ISAMPLE__MAT_MAT927, material=MAT927
  *solidsection, elset=ASSEMBLY_ISAMPLE__MAT_MAT928, material=MAT928
  *solidsection, elset=ASSEMBLY_ISAMPLE__MAT_MAT929, material=MAT929
  *solidsection, elset=ASSEMBLY_ISAMPLE__MAT_MAT93, material=MAT93
  *solidsection, elset=ASSEMBLY_ISAMPLE__MAT_MAT930, material=MAT930
  *solidsection, elset=ASSEMBLY_ISAMPLE__MAT_MAT931, material=MAT931
  *solidsection, elset=ASSEMBLY_ISAMPLE__MAT_MAT932, material=MAT932
  *solidsection, elset=ASSEMBLY_ISAMPLE__MAT_MAT933, material=MAT933
  *solidsection, elset=ASSEMBLY_ISAMPLE__MAT_MAT934, material=MAT934
  *solidsection, elset=ASSEMBLY_ISAMPLE__MAT_MAT935, material=MAT935
  *solidsection, elset=ASSEMBLY_ISAMPLE__MAT_MAT936, material=MAT936
  *solidsection, elset=ASSEMBLY_ISAMPLE__MAT_MAT937, material=MAT937
  *solidsection, elset=ASSEMBLY_ISAMPLE__MAT_MAT938, material=MAT938
  *solidsection, elset=ASSEMBLY_ISAMPLE__MAT_MAT939, material=MAT939
  *solidsection, elset=ASSEMBLY_ISAMPLE__MAT_MAT94, material=MAT94
  *solidsection, elset=ASSEMBLY_ISAMPLE__MAT_MAT940, material=MAT940
  *solidsection, elset=ASSEMBLY_ISAMPLE__MAT_MAT941, material=MAT941
  *solidsection, elset=ASSEMBLY_ISAMPLE__MAT_MAT942, material=MAT942
  *solidsection, elset=ASSEMBLY_ISAMPLE__MAT_MAT943, material=MAT943
  *solidsection, elset=ASSEMBLY_ISAMPLE__MAT_MAT944, material=MAT944
  *solidsection, elset=ASSEMBLY_ISAMPLE__MAT_MAT945, material=MAT945
  *solidsection, elset=ASSEMBLY_ISAMPLE__MAT_MAT946, material=MAT946
  *solidsection, elset=ASSEMBLY_ISAMPLE__MAT_MAT947, material=MAT947
  *solidsection, elset=ASSEMBLY_ISAMPLE__MAT_MAT948, material=MAT948
  *solidsection, elset=ASSEMBLY_ISAMPLE__MAT_MAT949, material=MAT949
  *solidsection, elset=ASSEMBLY_ISAMPLE__MAT_MAT95, material=MAT95
  *solidsection, elset=ASSEMBLY_ISAMPLE__MAT_MAT950, material=MAT950
  *solidsection, elset=ASSEMBLY_ISAMPLE__MAT_MAT951, material=MAT951
  *solidsection, elset=ASSEMBLY_ISAMPLE__MAT_MAT952, material=MAT952
  *solidsection, elset=ASSEMBLY_ISAMPLE__MAT_MAT953, material=MAT953
  *solidsection, elset=ASSEMBLY_ISAMPLE__MAT_MAT954, material=MAT954
  *solidsection, elset=ASSEMBLY_ISAMPLE__MAT_MAT955, material=MAT955
  *solidsection, elset=ASSEMBLY_ISAMPLE__MAT_MAT956, material=MAT956
  *solidsection, elset=ASSEMBLY_ISAMPLE__MAT_MAT957, material=MAT957
  *solidsection, elset=ASSEMBLY_ISAMPLE__MAT_MAT958, material=MAT958
  *solidsection, elset=ASSEMBLY_ISAMPLE__MAT_MAT959, material=MAT959
  *solidsection, elset=ASSEMBLY_ISAMPLE__MAT_MAT96, material=MAT96
  *solidsection, elset=ASSEMBLY_ISAMPLE__MAT_MAT960, material=MAT960
  *solidsection, elset=ASSEMBLY_ISAMPLE__MAT_MAT961, material=MAT961
  *solidsection, elset=ASSEMBLY_ISAMPLE__MAT_MAT962, material=MAT962
  *solidsection, elset=ASSEMBLY_ISAMPLE__MAT_MAT963, material=MAT963
  *solidsection, elset=ASSEMBLY_ISAMPLE__MAT_MAT964, material=MAT964
  *solidsection, elset=ASSEMBLY_ISAMPLE__MAT_MAT965, material=MAT965
  *solidsection, elset=ASSEMBLY_ISAMPLE__MAT_MAT966, material=MAT966
  *solidsection, elset=ASSEMBLY_ISAMPLE__MAT_MAT967, material=MAT967
  *solidsection, elset=ASSEMBLY_ISAMPLE__MAT_MAT968, material=MAT968
  *solidsection, elset=ASSEMBLY_ISAMPLE__MAT_MAT969, material=MAT969
  *solidsection, elset=ASSEMBLY_ISAMPLE__MAT_MAT97, material=MAT97
  *solidsection, elset=ASSEMBLY_ISAMPLE__MAT_MAT970, material=MAT970
  *solidsection, elset=ASSEMBLY_ISAMPLE__MAT_MAT971, material=MAT971
  *solidsection, elset=ASSEMBLY_ISAMPLE__MAT_MAT972, material=MAT972
  *solidsection, elset=ASSEMBLY_ISAMPLE__MAT_MAT973, material=MAT973
  *solidsection, elset=ASSEMBLY_ISAMPLE__MAT_MAT974, material=MAT974
  *solidsection, elset=ASSEMBLY_ISAMPLE__MAT_MAT975, material=MAT975
  *solidsection, elset=ASSEMBLY_ISAMPLE__MAT_MAT976, material=MAT976
  *solidsection, elset=ASSEMBLY_ISAMPLE__MAT_MAT977, material=MAT977
  *solidsection, elset=ASSEMBLY_ISAMPLE__MAT_MAT978, material=MAT978
  *solidsection, elset=ASSEMBLY_ISAMPLE__MAT_MAT979, material=MAT979
  *solidsection, elset=ASSEMBLY_ISAMPLE__MAT_MAT98, material=MAT98
  *solidsection, elset=ASSEMBLY_ISAMPLE__MAT_MAT980, material=MAT980
  *solidsection, elset=ASSEMBLY_ISAMPLE__MAT_MAT981, material=MAT981
  *solidsection, elset=ASSEMBLY_ISAMPLE__MAT_MAT982, material=MAT982
  *solidsection, elset=ASSEMBLY_ISAMPLE__MAT_MAT983, material=MAT983
  *solidsection, elset=ASSEMBLY_ISAMPLE__MAT_MAT984, material=MAT984
  *solidsection, elset=ASSEMBLY_ISAMPLE__MAT_MAT985, material=MAT985
  *solidsection, elset=ASSEMBLY_ISAMPLE__MAT_MAT986, material=MAT986
  *solidsection, elset=ASSEMBLY_ISAMPLE__MAT_MAT987, material=MAT987
  *solidsection, elset=ASSEMBLY_ISAMPLE__MAT_MAT988, material=MAT988
  *solidsection, elset=ASSEMBLY_ISAMPLE__MAT_MAT989, material=MAT989
  *solidsection, elset=ASSEMBLY_ISAMPLE__MAT_MAT99, material=MAT99
  *solidsection, elset=ASSEMBLY_ISAMPLE__MAT_MAT990, material=MAT990
  *solidsection, elset=ASSEMBLY_ISAMPLE__MAT_MAT991, material=MAT991
  *solidsection, elset=ASSEMBLY_ISAMPLE__MAT_MAT992, material=MAT992
  *solidsection, elset=ASSEMBLY_ISAMPLE__MAT_MAT993, material=MAT993
  *solidsection, elset=ASSEMBLY_ISAMPLE__MAT_MAT994, material=MAT994
  *solidsection, elset=ASSEMBLY_ISAMPLE__MAT_MAT995, material=MAT995
  *solidsection, elset=ASSEMBLY_ISAMPLE__MAT_MAT996, material=MAT996
  *solidsection, elset=ASSEMBLY_ISAMPLE__MAT_MAT997, material=MAT997
  *solidsection, elset=ASSEMBLY_ISAMPLE__MAT_MAT998, material=MAT998
  *solidsection, elset=ASSEMBLY_ISAMPLE__MAT_MAT999, material=MAT999
  *output, field, frequency=1
  *output, history
  *elementoutput, directions=YES
  *elementoutput, elset=ASSEMBLY_ISAMPLE_ALL, directions=NO
  *output, field, frequency=1
  *output, history
  *elementoutput, directions=YES
  *elementoutput, elset=ASSEMBLY_ISAMPLE_ALL, directions=NO
  *output, field, frequency=1
  *output, history
  *elementoutput, directions=YES
  *elementoutput, elset=ASSEMBLY_ISAMPLE_ALL, directions=NO

 ***WARNING: MPCS (EXTERNAL or INTERNAL, including those generated from rigid 
             body definitions), KINEMATIC COUPLINGS, AND/OR EQUATIONS WILL 
             ACTIVATE ADDITIONAL DEGREES OF FREEDOM
  *Step, name=LOADING, nlgeom=YES, inc=1000000
  *output, field, frequency=1
  *output, history
  *Step, name=LOADING, nlgeom=YES, inc=1000000
  *Step, name=LOADING, nlgeom=YES, inc=1000000
  *static
  *boundary, op=NEW
  *output, field, frequency=1
  *nodeoutput
  *elementoutput, directions=YES
  *output, history
  *energyoutput
  *nodeoutput, nset=ASSEMBLY_ISAMPLE_CONTROL
  *nodeoutput, nset=ASSEMBLY_ISAMPLE_CONTROL
  *nodeoutput, nset=ASSEMBLY_ISAMPLE_CONTROL
  *elementoutput, elset=ASSEMBLY_ISAMPLE_ALL, directions=NO
  *endstep
  *Step, name=LOADING, nlgeom=YES, inc=1000000
  *static
  *boundary, op=NEW
  *endstep



                            P R O B L E M   S I Z E


          NUMBER OF ELEMENTS IS                                  1000
          NUMBER OF NODES IS                                     1332
          NUMBER OF NODES DEFINED BY THE USER                    1332
          TOTAL NUMBER OF VARIABLES IN THE MODEL                 3996
          (DEGREES OF FREEDOM PLUS MAX NO. OF ANY LAGRANGE MULTIPLIER
           VARIABLES. INCLUDE *PRINT,SOLVE=YES TO GET THE ACTUAL NUMBER.)



                              END OF USER INPUT PROCESSING



     JOB TIME SUMMARY
       USER TIME (SEC)      =   1.4300    
       SYSTEM TIME (SEC)    =  0.12000    
       TOTAL CPU TIME (SEC) =   1.5500    
       WALLCLOCK TIME (SEC) =          2
1

   Abaqus 6.13-1                                  Date 19-févr.-2018   Time 21:08:57
   For use at  under license from Dassault Systemes or its subsidiary.

                                                                                               STEP    1  INCREMENT    1
                                                                                          TIME COMPLETED IN THIS STEP   0.00    


                        S T E P       1     S T A T I C   A N A L Y S I S


                                                                                          

     AUTOMATIC TIME CONTROL WITH -
          A SUGGESTED INITIAL TIME INCREMENT OF                1.000E-02
          AND A TOTAL TIME PERIOD OF                            1.00    
          THE MINIMUM TIME INCREMENT ALLOWED IS                1.000E-08
          THE MAXIMUM TIME INCREMENT ALLOWED IS                1.000E-02

     LINEAR EQUATION SOLVER TYPE         DIRECT SPARSE

          LARGE DISPLACEMENT THEORY WILL BE USED
  
                   M E M O R Y   E S T I M A T E
  
 PROCESS      FLOATING PT       MINIMUM MEMORY        MEMORY TO
              OPERATIONS           REQUIRED          MINIMIZE I/O
             PER ITERATION         (MBYTES)           (MBYTES)
  
     1          6.38E+08               18                 41
  
 NOTE:
      (1) SINCE ABAQUS DOES NOT PRE-ALLOCATE MEMORY AND ONLY ALLOCATES MEMORY AS NEEDED DURING THE ANALYSIS,
          THE MEMORY REQUIREMENT PRINTED HERE CAN ONLY BE VIEWED AS A GENERAL GUIDELINE BASED ON THE BEST
          KNOWLEDGE AVAILABLE AT THE BEGINNING OF A STEP BEFORE THE SOLUTION PROCESS HAS BEGUN.
      (2) THE ESTIMATE IS NORMALLY UPDATED AT THE BEGINNING OF EVERY STEP. IT IS THE MAXIMUM VALUE OF THE
          ESTIMATE FROM THE CURRENT STEP TO THE LAST STEP OF THE ANALYSIS, WITH UNSYMMETRIC SOLUTION TAKEN
          INTO ACCOUNT IF APPLICABLE. 
      (3) SINCE THE ESTIMATE IS BASED ON THE ACTIVE DEGREES OF FREEDOM IN THE FIRST ITERATION OF THE 
          CURRENT STEP, THE MEMORY ESTIMATE MIGHT BE SIGNIFICANTLY DIFFERENT THAN ACTUAL USAGE FOR 
          PROBLEMS WITH SUBSTANTIAL CHANGES IN ACTIVE DEGREES OF FREEDOM BETWEEN STEPS (OR EVEN WITHIN
          THE SAME STEP). EXAMPLES ARE: PROBLEMS WITH SIGNIFICANT CONTACT CHANGES, PROBLEMS WITH MODEL
          CHANGE, PROBLEMS WITH BOTH STATIC STEP AND STEADY STATE DYNAMIC PROCEDURES WHERE ACOUSTIC 
          ELEMENTS WILL ONLY BE ACTIVATED IN THE STEADY STATE DYNAMIC STEPS.
      (4) FOR MULTI-PROCESS EXECUTION, THE ESTIMATED VALUE OF FLOATING POINT OPERATIONS FOR EACH PROCESS
          IS BASED ON AN INITIAL SCHEDULING OF OPERATIONS AND MIGHT NOT REFLECT THE ACTUAL FLOATING 
          POINT OPERATIONS COMPLETED ON EACH PROCESS. OPERATIONS ARE DYNAMICALLY BALANCED DURING EXECUTION, 
          SO THE ACTUAL BALANCE OF OPERATIONS BETWEEN PROCESSES IS EXPECTED TO BE BETTER THAN THE ESTIMATE
          PRINTED HERE.
      (5) THE UPPER LIMIT OF MEMORY THAT CAN BE ALLOCATED BY ABAQUS WILL IN GENERAL DEPEND ON THE VALUE OF
          THE "MEMORY" PARAMETER AND THE AMOUNT OF PHYSICAL MEMORY AVAILABLE ON THE MACHINE. PLEASE SEE
          THE "ABAQUS ANALYSIS USER'S MANUAL" FOR MORE DETAILS. THE ACTUAL USAGE OF MEMORY AND OF DISK
          SPACE FOR SCRATCH DATA WILL DEPEND ON THIS UPPER LIMIT AS WELL AS THE MEMORY REQUIRED TO MINIMIZE
          I/O. IF THE MEMORY UPPER LIMIT IS GREATER THAN THE MEMORY REQUIRED TO MINIMIZE I/O, THEN THE ACTUAL
          MEMORY USAGE WILL BE CLOSE TO THE ESTIMATED "MEMORY TO MINIMIZE I/O" VALUE, AND THE SCRATCH DISK
          USAGE WILL BE CLOSE-TO-ZERO; OTHERWISE, THE ACTUAL MEMORY USED WILL BE CLOSE TO THE PREVIOUSLY
          MENTIONED MEMORY LIMIT, AND THE SCRATCH DISK USAGE WILL BE ROUGHLY PROPORTIONAL TO THE DIFFERENCE
          BETWEEN THE ESTIMATED "MEMORY TO MINIMIZE I/O" AND THE MEMORY UPPER LIMIT. HOWEVER ACCURATE
          ESTIMATE OF THE SCRATCH DISK SPACE IS NOT POSSIBLE.
      (6) USING "*RESTART, WRITE" CAN GENERATE A LARGE AMOUNT OF DATA WRITTEN IN THE WORK DIRECTORY.


          THE ANALYSIS HAS BEEN COMPLETED



                              ANALYSIS COMPLETE
                              WITH      1 WARNING MESSAGES ON THE DAT FILE



     JOB TIME SUMMARY
       USER TIME (SEC)      =   39.330    
       SYSTEM TIME (SEC)    =   1.1600    
       TOTAL CPU TIME (SEC) =   40.490    
       WALLCLOCK TIME (SEC) =         41
